1D
                    3D
 Structure written by MMmdl.
 62 65  0  0  1  0            999 V2000
   -3.2450    5.7480   20.2080 C   0  0  0  0  0  0
   -3.8130    7.0280   20.1030 C   0  0  0  0  0  0
   -1.8960    5.5640   19.8250 C   0  0  0  0  0  0
   -1.1280    6.6450   19.3710 C   0  0  0  0  0  0
   -1.7070    7.9240   19.2760 C   0  0  0  0  0  0
   -3.0560    8.1170   19.6400 C   0  0  0  0  0  0
   -3.6940    9.4740   19.5440 C   0  0  0  0  0  0
   -2.9810   10.4910   19.1390 N   0  0  0  0  0  0
   -4.9560    9.6140   19.8860 N   0  3  0  0  0  0
   -4.0900    4.5600   20.7130 C   0  0  0  0  0  0
   -4.0520    4.3820   22.2420 C   0  0  1  0  0  0
   -2.7330    4.7590   22.8850 C   0  0  0  0  0  0
   -2.7060    5.8960   23.3530 O   0  0  0  0  0  0
   -1.6530    3.9220   22.9120 N   0  0  0  0  0  0
   -1.5950    2.7340   22.0300 C   0  0  0  0  0  0
   -1.1190    1.5670   22.9310 C   0  0  0  0  0  0
    0.1300    3.3040   24.3760 C   0  0  0  0  0  0
   -0.3720    4.4270   23.4370 C   0  0  0  0  0  0
   -0.0250    1.9370   23.8060 N   0  3  0  0  0  0
   -5.1560    5.1010   22.8930 N   0  0  0  0  0  0
   -6.0160    4.3560   24.1820 S   0  0  0  0  0  0
   -7.0700    5.2380   24.6080 O   0  0  0  0  0  0
   -6.2660    2.9880   23.8750 O   0  0  0  0  0  0
   -4.7590    4.4100   25.3600 C   0  0  0  0  0  0
   -4.4710    5.6480   25.9580 C   0  0  0  0  0  0
   -3.4430    5.7550   26.9290 C   0  0  0  0  0  0
   -3.0190    3.3300   26.6770 C   0  0  0  0  0  0
   -2.7100    4.5860   27.2970 C   0  0  0  0  0  0
   -4.0540    3.2590   25.7070 C   0  0  0  0  0  0
   -1.6680    4.6280   28.2750 C   0  0  0  0  0  0
   -0.9450    3.4410   28.6250 C   0  0  0  0  0  0
   -1.2660    2.2110   28.0000 C   0  0  0  0  0  0
   -2.2910    2.1500   27.0330 C   0  0  0  0  0  0
   -4.8450    7.1852   20.3800 H   0  0  0  0  0  0
   -1.4478    4.5830   19.8808 H   0  0  0  0  0  0
   -0.0946    6.4951   19.0952 H   0  0  0  0  0  0
   -1.1184    8.7584   18.9242 H   0  0  0  0  0  0
   -1.9271   10.3470   18.8586 H   0  0  0  0  0  0
   -3.4345   11.4913   19.0784 H   0  0  0  0  0  0
   -5.5344    8.7414   20.2237 H   0  0  0  0  0  0
   -5.1413    4.7096   20.4259 H   0  0  0  0  0  0
   -3.7166    3.6276   20.2646 H   0  0  0  0  0  0
   -4.2009    3.3102   22.4397 H   0  0  0  0  0  0
   -2.5941    2.5369   21.6142 H   0  0  0  0  0  0
   -0.8867    2.9208   21.2094 H   0  0  0  0  0  0
   -1.9528    1.2285   23.5636 H   0  0  0  0  0  0
   -0.7753    0.7337   22.3006 H   0  0  0  0  0  0
    1.1993    3.4528   24.5866 H   0  0  0  0  0  0
   -0.4368    3.3332   25.3183 H   0  0  0  0  0  0
    0.3218    4.6050   22.6021 H   0  0  0  0  0  0
   -0.5434    5.3690   23.9784 H   0  0  0  0  0  0
   -0.0474    1.3071   24.7075 H   0  0  0  0  0  0
   -5.3248    6.1654   22.6727 H   0  0  0  0  0  0
   -5.0340    6.5264   25.6791 H   0  0  0  0  0  0
   -3.2233    6.7116   27.3797 H   0  0  0  0  0  0
   -4.2952    2.3162   25.2386 H   0  0  0  0  0  0
   -1.4185    5.5609   28.7585 H   0  0  0  0  0  0
   -0.1581    3.4860   29.3633 H   0  0  0  0  0  0
   -0.7249    1.3141   28.2633 H   0  0  0  0  0  0
   -2.5257    1.2076   26.5605 H   0  0  0  0  0  0
   -5.4333   10.6037   19.8344 H   0  0  0  0  0  0
    0.9303    1.7912   23.2805 H   0  0  0  0  0  0
  1  2  2  0  0  0
  1  3  1  0  0  0
  1 10  1  0  0  0
  2  6  1  0  0  0
  2 34  1  0  0  0
  3  4  2  0  0  0
  3 35  1  0  0  0
  4  5  1  0  0  0
  4 36  1  0  0  0
  5  6  2  0  0  0
  5 37  1  0  0  0
  6  7  1  0  0  0
  7  8  1  0  0  0
  7  9  2  0  0  0
  8 38  1  0  0  0
  8 39  1  0  0  0
  9 40  1  0  0  0
  9 61  1  0  0  0
 10 11  1  0  0  0
 10 41  1  0  0  0
 10 42  1  0  0  0
 11 12  1  0  0  0
 11 20  1  0  0  0
 11 43  1  0  0  0
 12 13  2  0  0  0
 12 14  1  0  0  0
 14 15  1  0  0  0
 14 18  1  0  0  0
 15 16  1  0  0  0
 15 44  1  0  0  0
 15 45  1  0  0  0
 16 19  1  0  0  0
 16 46  1  0  0  0
 16 47  1  0  0  0
 17 18  1  0  0  0
 17 19  1  0  0  0
 17 48  1  0  0  0
 17 49  1  0  0  0
 18 50  1  0  0  0
 18 51  1  0  0  0
 19 52  1  0  0  0
 19 62  1  0  0  0
 20 21  1  0  0  0
 20 53  1  0  0  0
 21 22  2  0  0  0
 21 23  2  0  0  0
 21 24  1  0  0  0
 24 25  2  0  0  0
 24 29  1  0  0  0
 25 26  1  0  0  0
 25 54  1  0  0  0
 26 28  2  0  0  0
 26 55  1  0  0  0
 27 28  1  0  0  0
 27 29  2  0  0  0
 27 33  1  0  0  0
 28 30  1  0  0  0
 29 56  1  0  0  0
 30 31  2  0  0  0
 30 57  1  0  0  0
 31 32  1  0  0  0
 31 58  1  0  0  0
 32 33  2  0  0  0
 32 59  1  0  0  0
 33 60  1  0  0  0
M  CHG  2   9   1  19   1
M  END
> <i_m_stars>
0

> <s_m_entry_id>
3

> <s_m_entry_name>
Structure

> <s_pdb_PDB_TITLE>
BOVINE TRYPSIN-INHIBITOR COMPLEX

> <s_pdb_PDB_ID>
1K1L

> <r_pdb_PDB_CRYST1_a>
63.277

> <r_pdb_PDB_CRYST1_b>
68.832

> <r_pdb_PDB_CRYST1_c>
63.715

> <r_pdb_PDB_CRYST1_alpha>
90

> <r_pdb_PDB_CRYST1_beta>
90

> <r_pdb_PDB_CRYST1_gamma>
90

> <s_pdb_PDB_CRYST1_Space_Group>
P 21 21 21

> <i_pdb_PDB_CRYST1_z>
4

> <s_pdb_PDB_CLASSIFICATION>
HYDROLASE

> <s_pdb_PDB_DEPOSITION_DATE>
25-SEP-01

> <s_pdb_PDB_format_version>
3.15

> <r_pdb_PDB_R>
0.166999995708466

> <r_pdb_PDB_RESOLUTION>
2.5

> <s_pdb_PDB_EXPDTA>
X-RAY DIFFRACTION

> <r_pdb_PDB_EXPDTA_TEMPERATURE>
287

> <s_pdb_PDB_REMARK_350_Biomolecule_1_Chains>
A

> <s_pdb_PDB_REMARK_350_Biomolecule_1_Transformation_1>
1.000000 0.000000 0.000000   0.000000;0.000000 1.000000 0.000000   0.000000;0.000000 0.000000 1.000000   0.000000

> <s_ppw_entry_id_backup>
1

> <b_ppw_prepared>
1

> <s_ppw_prepared_with_version>
2017-2

> <b_ppw_assigned_bond_orders>
1

> <b_ppw_added_hydrogens>
1

> <b_ppw_treated_metals>
1

> <b_ppw_created_disulfur>
1

> <i_psp_model_num>
0

> <r_psp_Prime_Coulomb>
-6995.33574555458

> <r_psp_Prime_Covalent>
3040.53625820119

> <r_psp_Prime_vdW>
215.071959013691

> <r_psp_Prime_Solv_GB>
-889.220839354606

> <r_psp_Prime_Lipo>
-493.852966165823

> <r_psp_Prime_Energy>
-5336.23182429585

> <s_psp_Prime_Energy_Force_Field>
OPLS3

> <s_psp_Prime_Energy_Solvent_Model>
VSGB2.1

> <r_psp_Prime_Hbond>
-156.14618951528

> <r_psp_Prime_Packing>
-24.7479962593238

> <r_psp_Prime_SelfCont>
-32.5363046611152

> <b_ppw_deleted_far_waters>
1

> <r_epik_Ionization_Penalty>
  0.1531

> <r_epik_Ionization_Penalty_Charging>
  0.1424

> <r_epik_Ionization_Penalty_Neutral>
  0.0107

> <r_epik_State_Penalty>
  0.1240

> <r_epik_Charging_Adjusted_Penalty>
0.266474715927628

> <i_epik_Tot_Q>
2

> <i_epik_Tot_abs_Q>
2

> <s_epik_Chemistry_Notes>
This compound has an imine and may undergo hydrolysis.

$$$$
1D
                    3D
 Structure written by MMmdl.
 61 64  0  0  1  0            999 V2000
   -3.2450    5.7480   20.2080 C   0  0  0  0  0  0
   -3.8130    7.0280   20.1030 C   0  0  0  0  0  0
   -1.8960    5.5640   19.8250 C   0  0  0  0  0  0
   -1.1280    6.6450   19.3710 C   0  0  0  0  0  0
   -1.7070    7.9240   19.2760 C   0  0  0  0  0  0
   -3.0560    8.1170   19.6400 C   0  0  0  0  0  0
   -3.6940    9.4740   19.5440 C   0  0  0  0  0  0
   -2.9810   10.4910   19.1390 N   0  0  0  0  0  0
   -4.9560    9.6140   19.8860 N   0  3  0  0  0  0
   -4.0900    4.5600   20.7130 C   0  0  0  0  0  0
   -4.0520    4.3820   22.2420 C   0  0  1  0  0  0
   -2.7330    4.7590   22.8850 C   0  0  0  0  0  0
   -2.7060    5.8960   23.3530 O   0  0  0  0  0  0
   -1.6530    3.9220   22.9120 N   0  0  0  0  0  0
   -1.5950    2.7340   22.0300 C   0  0  0  0  0  0
   -1.1190    1.5670   22.9310 C   0  0  0  0  0  0
    0.1300    3.3040   24.3760 C   0  0  0  0  0  0
   -0.3720    4.4270   23.4370 C   0  0  0  0  0  0
   -0.0250    1.9370   23.8060 N   0  0  0  0  0  0
   -5.1560    5.1010   22.8930 N   0  0  0  0  0  0
   -6.0160    4.3560   24.1820 S   0  0  0  0  0  0
   -7.0700    5.2380   24.6080 O   0  0  0  0  0  0
   -6.2660    2.9880   23.8750 O   0  0  0  0  0  0
   -4.7590    4.4100   25.3600 C   0  0  0  0  0  0
   -4.4710    5.6480   25.9580 C   0  0  0  0  0  0
   -3.4430    5.7550   26.9290 C   0  0  0  0  0  0
   -3.0190    3.3300   26.6770 C   0  0  0  0  0  0
   -2.7100    4.5860   27.2970 C   0  0  0  0  0  0
   -4.0540    3.2590   25.7070 C   0  0  0  0  0  0
   -1.6680    4.6280   28.2750 C   0  0  0  0  0  0
   -0.9450    3.4410   28.6250 C   0  0  0  0  0  0
   -1.2660    2.2110   28.0000 C   0  0  0  0  0  0
   -2.2910    2.1500   27.0330 C   0  0  0  0  0  0
   -4.8450    7.1852   20.3800 H   0  0  0  0  0  0
   -1.4478    4.5830   19.8808 H   0  0  0  0  0  0
   -0.0946    6.4951   19.0952 H   0  0  0  0  0  0
   -1.1184    8.7584   18.9242 H   0  0  0  0  0  0
   -1.9271   10.3470   18.8586 H   0  0  0  0  0  0
   -3.4345   11.4913   19.0784 H   0  0  0  0  0  0
   -5.5344    8.7414   20.2237 H   0  0  0  0  0  0
   -5.1413    4.7096   20.4259 H   0  0  0  0  0  0
   -3.7166    3.6276   20.2646 H   0  0  0  0  0  0
   -4.2009    3.3102   22.4397 H   0  0  0  0  0  0
   -2.5941    2.5369   21.6142 H   0  0  0  0  0  0
   -0.8867    2.9208   21.2094 H   0  0  0  0  0  0
   -1.9528    1.2285   23.5636 H   0  0  0  0  0  0
   -0.7753    0.7337   22.3006 H   0  0  0  0  0  0
    1.1993    3.4528   24.5866 H   0  0  0  0  0  0
   -0.4368    3.3332   25.3183 H   0  0  0  0  0  0
    0.3218    4.6050   22.6021 H   0  0  0  0  0  0
   -0.5434    5.3690   23.9784 H   0  0  0  0  0  0
   -5.3248    6.1654   22.6727 H   0  0  0  0  0  0
   -5.0340    6.5264   25.6791 H   0  0  0  0  0  0
   -3.2233    6.7116   27.3797 H   0  0  0  0  0  0
   -4.2952    2.3162   25.2386 H   0  0  0  0  0  0
   -1.4185    5.5609   28.7585 H   0  0  0  0  0  0
   -0.1581    3.4860   29.3633 H   0  0  0  0  0  0
   -0.7249    1.3141   28.2633 H   0  0  0  0  0  0
   -2.5257    1.2076   26.5605 H   0  0  0  0  0  0
   -5.4333   10.6037   19.8344 H   0  0  0  0  0  0
   -0.0474    1.3071   24.7075 H   0  0  0  0  0  0
  1  2  2  0  0  0
  1  3  1  0  0  0
  1 10  1  0  0  0
  2  6  1  0  0  0
  2 34  1  0  0  0
  3  4  2  0  0  0
  3 35  1  0  0  0
  4  5  1  0  0  0
  4 36  1  0  0  0
  5  6  2  0  0  0
  5 37  1  0  0  0
  6  7  1  0  0  0
  7  8  1  0  0  0
  7  9  2  0  0  0
  8 38  1  0  0  0
  8 39  1  0  0  0
  9 40  1  0  0  0
  9 60  1  0  0  0
 10 11  1  0  0  0
 10 41  1  0  0  0
 10 42  1  0  0  0
 11 12  1  0  0  0
 11 20  1  0  0  0
 11 43  1  0  0  0
 12 13  2  0  0  0
 12 14  1  0  0  0
 14 15  1  0  0  0
 14 18  1  0  0  0
 15 16  1  0  0  0
 15 44  1  0  0  0
 15 45  1  0  0  0
 16 19  1  0  0  0
 16 46  1  0  0  0
 16 47  1  0  0  0
 17 18  1  0  0  0
 17 19  1  0  0  0
 17 48  1  0  0  0
 17 49  1  0  0  0
 18 50  1  0  0  0
 18 51  1  0  0  0
 19 61  1  0  0  0
 20 21  1  0  0  0
 20 52  1  0  0  0
 21 22  2  0  0  0
 21 23  2  0  0  0
 21 24  1  0  0  0
 24 25  2  0  0  0
 24 29  1  0  0  0
 25 26  1  0  0  0
 25 53  1  0  0  0
 26 28  2  0  0  0
 26 54  1  0  0  0
 27 28  1  0  0  0
 27 29  2  0  0  0
 27 33  1  0  0  0
 28 30  1  0  0  0
 29 55  1  0  0  0
 30 31  2  0  0  0
 30 56  1  0  0  0
 31 32  1  0  0  0
 31 57  1  0  0  0
 32 33  2  0  0  0
 32 58  1  0  0  0
 33 59  1  0  0  0
M  CHG  1   9   1
M  END
> <i_m_stars>
0

> <s_m_entry_id>
3

> <s_m_entry_name>
Structure

> <s_pdb_PDB_TITLE>
BOVINE TRYPSIN-INHIBITOR COMPLEX

> <s_pdb_PDB_ID>
1K1L

> <r_pdb_PDB_CRYST1_a>
63.277

> <r_pdb_PDB_CRYST1_b>
68.832

> <r_pdb_PDB_CRYST1_c>
63.715

> <r_pdb_PDB_CRYST1_alpha>
90

> <r_pdb_PDB_CRYST1_beta>
90

> <r_pdb_PDB_CRYST1_gamma>
90

> <s_pdb_PDB_CRYST1_Space_Group>
P 21 21 21

> <i_pdb_PDB_CRYST1_z>
4

> <s_pdb_PDB_CLASSIFICATION>
HYDROLASE

> <s_pdb_PDB_DEPOSITION_DATE>
25-SEP-01

> <s_pdb_PDB_format_version>
3.15

> <r_pdb_PDB_R>
0.166999995708466

> <r_pdb_PDB_RESOLUTION>
2.5

> <s_pdb_PDB_EXPDTA>
X-RAY DIFFRACTION

> <r_pdb_PDB_EXPDTA_TEMPERATURE>
287

> <s_pdb_PDB_REMARK_350_Biomolecule_1_Chains>
A

> <s_pdb_PDB_REMARK_350_Biomolecule_1_Transformation_1>
1.000000 0.000000 0.000000   0.000000;0.000000 1.000000 0.000000   0.000000;0.000000 0.000000 1.000000   0.000000

> <s_ppw_entry_id_backup>
1

> <b_ppw_prepared>
1

> <s_ppw_prepared_with_version>
2017-2

> <b_ppw_assigned_bond_orders>
1

> <b_ppw_added_hydrogens>
1

> <b_ppw_treated_metals>
1

> <b_ppw_created_disulfur>
1

> <i_psp_model_num>
0

> <r_psp_Prime_Coulomb>
-6995.33574555458

> <r_psp_Prime_Covalent>
3040.53625820119

> <r_psp_Prime_vdW>
215.071959013691

> <r_psp_Prime_Solv_GB>
-889.220839354606

> <r_psp_Prime_Lipo>
-493.852966165823

> <r_psp_Prime_Energy>
-5336.23182429585

> <s_psp_Prime_Energy_Force_Field>
OPLS3

> <s_psp_Prime_Energy_Solvent_Model>
VSGB2.1

> <r_psp_Prime_Hbond>
-156.14618951528

> <r_psp_Prime_Packing>
-24.7479962593238

> <r_psp_Prime_SelfCont>
-32.5363046611152

> <b_ppw_deleted_far_waters>
1

> <r_epik_Ionization_Penalty>
  0.9276

> <r_epik_Ionization_Penalty_Charging>
  0.0012

> <r_epik_Ionization_Penalty_Neutral>
  0.9265

> <r_epik_State_Penalty>
  1.0438

> <r_epik_Charging_Adjusted_Penalty>
1.04494606033418

> <i_epik_Tot_Q>
1

> <i_epik_Tot_abs_Q>
1

> <s_epik_Chemistry_Notes>
This compound has an imine and may undergo hydrolysis.

$$$$
1D
                    3D
 Structure written by MMmdl.
 61 64  0  0  1  0            999 V2000
   -3.2450    5.7480   20.2080 C   0  0  0  0  0  0
   -3.8130    7.0280   20.1030 C   0  0  0  0  0  0
   -1.8960    5.5640   19.8250 C   0  0  0  0  0  0
   -1.1280    6.6450   19.3710 C   0  0  0  0  0  0
   -1.7070    7.9240   19.2760 C   0  0  0  0  0  0
   -3.0560    8.1170   19.6400 C   0  0  0  0  0  0
   -3.6940    9.4740   19.5440 C   0  0  0  0  0  0
   -2.9810   10.4910   19.1390 N   0  0  0  0  0  0
   -4.9560    9.6140   19.8860 N   0  3  0  0  0  0
   -4.0900    4.5600   20.7130 C   0  0  0  0  0  0
   -4.0520    4.3820   22.2420 C   0  0  1  0  0  0
   -2.7330    4.7590   22.8850 C   0  0  0  0  0  0
   -2.7060    5.8960   23.3530 O   0  0  0  0  0  0
   -1.6530    3.9220   22.9120 N   0  0  0  0  0  0
   -1.5950    2.7340   22.0300 C   0  0  0  0  0  0
   -1.1190    1.5670   22.9310 C   0  0  0  0  0  0
    0.1300    3.3040   24.3760 C   0  0  0  0  0  0
   -0.3720    4.4270   23.4370 C   0  0  0  0  0  0
   -0.0250    1.9370   23.8060 N   0  3  0  0  0  0
   -5.1560    5.1010   22.8930 N   0  5  0  0  0  0
   -6.0160    4.3560   24.1820 S   0  0  0  0  0  0
   -7.0700    5.2380   24.6080 O   0  0  0  0  0  0
   -6.2660    2.9880   23.8750 O   0  0  0  0  0  0
   -4.7590    4.4100   25.3600 C   0  0  0  0  0  0
   -4.4710    5.6480   25.9580 C   0  0  0  0  0  0
   -3.4430    5.7550   26.9290 C   0  0  0  0  0  0
   -3.0190    3.3300   26.6770 C   0  0  0  0  0  0
   -2.7100    4.5860   27.2970 C   0  0  0  0  0  0
   -4.0540    3.2590   25.7070 C   0  0  0  0  0  0
   -1.6680    4.6280   28.2750 C   0  0  0  0  0  0
   -0.9450    3.4410   28.6250 C   0  0  0  0  0  0
   -1.2660    2.2110   28.0000 C   0  0  0  0  0  0
   -2.2910    2.1500   27.0330 C   0  0  0  0  0  0
   -4.8450    7.1852   20.3800 H   0  0  0  0  0  0
   -1.4478    4.5830   19.8808 H   0  0  0  0  0  0
   -0.0946    6.4951   19.0952 H   0  0  0  0  0  0
   -1.1184    8.7584   18.9242 H   0  0  0  0  0  0
   -1.9271   10.3470   18.8586 H   0  0  0  0  0  0
   -3.4345   11.4913   19.0784 H   0  0  0  0  0  0
   -5.5344    8.7414   20.2237 H   0  0  0  0  0  0
   -5.1413    4.7096   20.4259 H   0  0  0  0  0  0
   -3.7166    3.6276   20.2646 H   0  0  0  0  0  0
   -4.2009    3.3102   22.4397 H   0  0  0  0  0  0
   -2.5941    2.5369   21.6142 H   0  0  0  0  0  0
   -0.8867    2.9208   21.2094 H   0  0  0  0  0  0
   -1.9528    1.2285   23.5636 H   0  0  0  0  0  0
   -0.7753    0.7337   22.3006 H   0  0  0  0  0  0
    1.1993    3.4528   24.5866 H   0  0  0  0  0  0
   -0.4368    3.3332   25.3183 H   0  0  0  0  0  0
    0.3218    4.6050   22.6021 H   0  0  0  0  0  0
   -0.5434    5.3690   23.9784 H   0  0  0  0  0  0
   -0.0474    1.3071   24.7075 H   0  0  0  0  0  0
   -5.0340    6.5264   25.6791 H   0  0  0  0  0  0
   -3.2233    6.7116   27.3797 H   0  0  0  0  0  0
   -4.2952    2.3162   25.2386 H   0  0  0  0  0  0
   -1.4185    5.5609   28.7585 H   0  0  0  0  0  0
   -0.1581    3.4860   29.3633 H   0  0  0  0  0  0
   -0.7249    1.3141   28.2633 H   0  0  0  0  0  0
   -2.5257    1.2076   26.5605 H   0  0  0  0  0  0
   -5.4333   10.6037   19.8344 H   0  0  0  0  0  0
    0.9303    1.7912   23.2805 H   0  0  0  0  0  0
  1  2  2  0  0  0
  1  3  1  0  0  0
  1 10  1  0  0  0
  2  6  1  0  0  0
  2 34  1  0  0  0
  3  4  2  0  0  0
  3 35  1  0  0  0
  4  5  1  0  0  0
  4 36  1  0  0  0
  5  6  2  0  0  0
  5 37  1  0  0  0
  6  7  1  0  0  0
  7  8  1  0  0  0
  7  9  2  0  0  0
  8 38  1  0  0  0
  8 39  1  0  0  0
  9 40  1  0  0  0
  9 60  1  0  0  0
 10 11  1  0  0  0
 10 41  1  0  0  0
 10 42  1  0  0  0
 11 12  1  0  0  0
 11 20  1  0  0  0
 11 43  1  0  0  0
 12 13  2  0  0  0
 12 14  1  0  0  0
 14 15  1  0  0  0
 14 18  1  0  0  0
 15 16  1  0  0  0
 15 44  1  0  0  0
 15 45  1  0  0  0
 16 19  1  0  0  0
 16 46  1  0  0  0
 16 47  1  0  0  0
 17 18  1  0  0  0
 17 19  1  0  0  0
 17 48  1  0  0  0
 17 49  1  0  0  0
 18 50  1  0  0  0
 18 51  1  0  0  0
 19 52  1  0  0  0
 19 61  1  0  0  0
 20 21  1  0  0  0
 21 22  2  0  0  0
 21 23  2  0  0  0
 21 24  1  0  0  0
 24 25  2  0  0  0
 24 29  1  0  0  0
 25 26  1  0  0  0
 25 53  1  0  0  0
 26 28  2  0  0  0
 26 54  1  0  0  0
 27 28  1  0  0  0
 27 29  2  0  0  0
 27 33  1  0  0  0
 28 30  1  0  0  0
 29 55  1  0  0  0
 30 31  2  0  0  0
 30 56  1  0  0  0
 31 32  1  0  0  0
 31 57  1  0  0  0
 32 33  2  0  0  0
 32 58  1  0  0  0
 33 59  1  0  0  0
M  CHG  3   9   1  19   1  20  -1
M  END
> <i_m_stars>
0

> <s_m_entry_id>
3

> <s_m_entry_name>
Structure

> <s_pdb_PDB_TITLE>
BOVINE TRYPSIN-INHIBITOR COMPLEX

> <s_pdb_PDB_ID>
1K1L

> <r_pdb_PDB_CRYST1_a>
63.277

> <r_pdb_PDB_CRYST1_b>
68.832

> <r_pdb_PDB_CRYST1_c>
63.715

> <r_pdb_PDB_CRYST1_alpha>
90

> <r_pdb_PDB_CRYST1_beta>
90

> <r_pdb_PDB_CRYST1_gamma>
90

> <s_pdb_PDB_CRYST1_Space_Group>
P 21 21 21

> <i_pdb_PDB_CRYST1_z>
4

> <s_pdb_PDB_CLASSIFICATION>
HYDROLASE

> <s_pdb_PDB_DEPOSITION_DATE>
25-SEP-01

> <s_pdb_PDB_format_version>
3.15

> <r_pdb_PDB_R>
0.166999995708466

> <r_pdb_PDB_RESOLUTION>
2.5

> <s_pdb_PDB_EXPDTA>
X-RAY DIFFRACTION

> <r_pdb_PDB_EXPDTA_TEMPERATURE>
287

> <s_pdb_PDB_REMARK_350_Biomolecule_1_Chains>
A

> <s_pdb_PDB_REMARK_350_Biomolecule_1_Transformation_1>
1.000000 0.000000 0.000000   0.000000;0.000000 1.000000 0.000000   0.000000;0.000000 0.000000 1.000000   0.000000

> <s_ppw_entry_id_backup>
1

> <b_ppw_prepared>
1

> <s_ppw_prepared_with_version>
2017-2

> <b_ppw_assigned_bond_orders>
1

> <b_ppw_added_hydrogens>
1

> <b_ppw_treated_metals>
1

> <b_ppw_created_disulfur>
1

> <i_psp_model_num>
0

> <r_psp_Prime_Coulomb>
-6995.33574555458

> <r_psp_Prime_Covalent>
3040.53625820119

> <r_psp_Prime_vdW>
215.071959013691

> <r_psp_Prime_Solv_GB>
-889.220839354606

> <r_psp_Prime_Lipo>
-493.852966165823

> <r_psp_Prime_Energy>
-5336.23182429585

> <s_psp_Prime_Energy_Force_Field>
OPLS3

> <s_psp_Prime_Energy_Solvent_Model>
VSGB2.1

> <r_psp_Prime_Hbond>
-156.14618951528

> <r_psp_Prime_Packing>
-24.7479962593238

> <r_psp_Prime_SelfCont>
-32.5363046611152

> <b_ppw_deleted_far_waters>
1

> <r_epik_Ionization_Penalty>
  2.4493

> <r_epik_Ionization_Penalty_Charging>
  2.4493

> <r_epik_Ionization_Penalty_Neutral>
  0.0000

> <r_epik_State_Penalty>
  2.5682

> <r_epik_Charging_Adjusted_Penalty>
5.01744108129945

> <i_epik_Tot_Q>
1

> <i_epik_Tot_abs_Q>
3

> <s_epik_Chemistry_Notes>
This compound has an imine and may undergo hydrolysis.

$$$$
1D
                    3D
 Structure written by MMmdl.
 60 63  0  0  1  0            999 V2000
   -3.2450    5.7480   20.2080 C   0  0  0  0  0  0
   -3.8130    7.0280   20.1030 C   0  0  0  0  0  0
   -1.8960    5.5640   19.8250 C   0  0  0  0  0  0
   -1.1280    6.6450   19.3710 C   0  0  0  0  0  0
   -1.7070    7.9240   19.2760 C   0  0  0  0  0  0
   -3.0560    8.1170   19.6400 C   0  0  0  0  0  0
   -3.6940    9.4740   19.5440 C   0  0  0  0  0  0
   -2.9810   10.4910   19.1390 N   0  0  0  0  0  0
   -4.9560    9.6140   19.8860 N   0  3  0  0  0  0
   -4.0900    4.5600   20.7130 C   0  0  0  0  0  0
   -4.0520    4.3820   22.2420 C   0  0  1  0  0  0
   -2.7330    4.7590   22.8850 C   0  0  0  0  0  0
   -2.7060    5.8960   23.3530 O   0  0  0  0  0  0
   -1.6530    3.9220   22.9120 N   0  0  0  0  0  0
   -1.5950    2.7340   22.0300 C   0  0  0  0  0  0
   -1.1190    1.5670   22.9310 C   0  0  0  0  0  0
    0.1300    3.3040   24.3760 C   0  0  0  0  0  0
   -0.3720    4.4270   23.4370 C   0  0  0  0  0  0
   -0.0250    1.9370   23.8060 N   0  0  0  0  0  0
   -5.1560    5.1010   22.8930 N   0  5  0  0  0  0
   -6.0160    4.3560   24.1820 S   0  0  0  0  0  0
   -7.0700    5.2380   24.6080 O   0  0  0  0  0  0
   -6.2660    2.9880   23.8750 O   0  0  0  0  0  0
   -4.7590    4.4100   25.3600 C   0  0  0  0  0  0
   -4.4710    5.6480   25.9580 C   0  0  0  0  0  0
   -3.4430    5.7550   26.9290 C   0  0  0  0  0  0
   -3.0190    3.3300   26.6770 C   0  0  0  0  0  0
   -2.7100    4.5860   27.2970 C   0  0  0  0  0  0
   -4.0540    3.2590   25.7070 C   0  0  0  0  0  0
   -1.6680    4.6280   28.2750 C   0  0  0  0  0  0
   -0.9450    3.4410   28.6250 C   0  0  0  0  0  0
   -1.2660    2.2110   28.0000 C   0  0  0  0  0  0
   -2.2910    2.1500   27.0330 C   0  0  0  0  0  0
   -4.8450    7.1852   20.3800 H   0  0  0  0  0  0
   -1.4478    4.5830   19.8808 H   0  0  0  0  0  0
   -0.0946    6.4951   19.0952 H   0  0  0  0  0  0
   -1.1184    8.7584   18.9242 H   0  0  0  0  0  0
   -1.9271   10.3470   18.8586 H   0  0  0  0  0  0
   -3.4345   11.4913   19.0784 H   0  0  0  0  0  0
   -5.5344    8.7414   20.2237 H   0  0  0  0  0  0
   -5.1413    4.7096   20.4259 H   0  0  0  0  0  0
   -3.7166    3.6276   20.2646 H   0  0  0  0  0  0
   -4.2009    3.3102   22.4397 H   0  0  0  0  0  0
   -2.5941    2.5369   21.6142 H   0  0  0  0  0  0
   -0.8867    2.9208   21.2094 H   0  0  0  0  0  0
   -1.9528    1.2285   23.5636 H   0  0  0  0  0  0
   -0.7753    0.7337   22.3006 H   0  0  0  0  0  0
    1.1993    3.4528   24.5866 H   0  0  0  0  0  0
   -0.4368    3.3332   25.3183 H   0  0  0  0  0  0
    0.3218    4.6050   22.6021 H   0  0  0  0  0  0
   -0.5434    5.3690   23.9784 H   0  0  0  0  0  0
   -5.0340    6.5264   25.6791 H   0  0  0  0  0  0
   -3.2233    6.7116   27.3797 H   0  0  0  0  0  0
   -4.2952    2.3162   25.2386 H   0  0  0  0  0  0
   -1.4185    5.5609   28.7585 H   0  0  0  0  0  0
   -0.1581    3.4860   29.3633 H   0  0  0  0  0  0
   -0.7249    1.3141   28.2633 H   0  0  0  0  0  0
   -2.5257    1.2076   26.5605 H   0  0  0  0  0  0
   -5.4333   10.6037   19.8344 H   0  0  0  0  0  0
   -0.0474    1.3071   24.7075 H   0  0  0  0  0  0
  1  2  2  0  0  0
  1  3  1  0  0  0
  1 10  1  0  0  0
  2  6  1  0  0  0
  2 34  1  0  0  0
  3  4  2  0  0  0
  3 35  1  0  0  0
  4  5  1  0  0  0
  4 36  1  0  0  0
  5  6  2  0  0  0
  5 37  1  0  0  0
  6  7  1  0  0  0
  7  8  1  0  0  0
  7  9  2  0  0  0
  8 38  1  0  0  0
  8 39  1  0  0  0
  9 40  1  0  0  0
  9 59  1  0  0  0
 10 11  1  0  0  0
 10 41  1  0  0  0
 10 42  1  0  0  0
 11 12  1  0  0  0
 11 20  1  0  0  0
 11 43  1  0  0  0
 12 13  2  0  0  0
 12 14  1  0  0  0
 14 15  1  0  0  0
 14 18  1  0  0  0
 15 16  1  0  0  0
 15 44  1  0  0  0
 15 45  1  0  0  0
 16 19  1  0  0  0
 16 46  1  0  0  0
 16 47  1  0  0  0
 17 18  1  0  0  0
 17 19  1  0  0  0
 17 48  1  0  0  0
 17 49  1  0  0  0
 18 50  1  0  0  0
 18 51  1  0  0  0
 19 60  1  0  0  0
 20 21  1  0  0  0
 21 22  2  0  0  0
 21 23  2  0  0  0
 21 24  1  0  0  0
 24 25  2  0  0  0
 24 29  1  0  0  0
 25 26  1  0  0  0
 25 52  1  0  0  0
 26 28  2  0  0  0
 26 53  1  0  0  0
 27 28  1  0  0  0
 27 29  2  0  0  0
 27 33  1  0  0  0
 28 30  1  0  0  0
 29 54  1  0  0  0
 30 31  2  0  0  0
 30 55  1  0  0  0
 31 32  1  0  0  0
 31 56  1  0  0  0
 32 33  2  0  0  0
 32 57  1  0  0  0
 33 58  1  0  0  0
M  CHG  2   9   1  20  -1
M  END
> <i_m_stars>
0

> <s_m_entry_id>
3

> <s_m_entry_name>
Structure

> <s_pdb_PDB_TITLE>
BOVINE TRYPSIN-INHIBITOR COMPLEX

> <s_pdb_PDB_ID>
1K1L

> <r_pdb_PDB_CRYST1_a>
63.277

> <r_pdb_PDB_CRYST1_b>
68.832

> <r_pdb_PDB_CRYST1_c>
63.715

> <r_pdb_PDB_CRYST1_alpha>
90

> <r_pdb_PDB_CRYST1_beta>
90

> <r_pdb_PDB_CRYST1_gamma>
90

> <s_pdb_PDB_CRYST1_Space_Group>
P 21 21 21

> <i_pdb_PDB_CRYST1_z>
4

> <s_pdb_PDB_CLASSIFICATION>
HYDROLASE

> <s_pdb_PDB_DEPOSITION_DATE>
25-SEP-01

> <s_pdb_PDB_format_version>
3.15

> <r_pdb_PDB_R>
0.166999995708466

> <r_pdb_PDB_RESOLUTION>
2.5

> <s_pdb_PDB_EXPDTA>
X-RAY DIFFRACTION

> <r_pdb_PDB_EXPDTA_TEMPERATURE>
287

> <s_pdb_PDB_REMARK_350_Biomolecule_1_Chains>
A

> <s_pdb_PDB_REMARK_350_Biomolecule_1_Transformation_1>
1.000000 0.000000 0.000000   0.000000;0.000000 1.000000 0.000000   0.000000;0.000000 0.000000 1.000000   0.000000

> <s_ppw_entry_id_backup>
1

> <b_ppw_prepared>
1

> <s_ppw_prepared_with_version>
2017-2

> <b_ppw_assigned_bond_orders>
1

> <b_ppw_added_hydrogens>
1

> <b_ppw_treated_metals>
1

> <b_ppw_created_disulfur>
1

> <i_psp_model_num>
0

> <r_psp_Prime_Coulomb>
-6995.33574555458

> <r_psp_Prime_Covalent>
3040.53625820119

> <r_psp_Prime_vdW>
215.071959013691

> <r_psp_Prime_Solv_GB>
-889.220839354606

> <r_psp_Prime_Lipo>
-493.852966165823

> <r_psp_Prime_Energy>
-5336.23182429585

> <s_psp_Prime_Energy_Force_Field>
OPLS3

> <s_psp_Prime_Energy_Solvent_Model>
VSGB2.1

> <r_psp_Prime_Hbond>
-156.14618951528

> <r_psp_Prime_Packing>
-24.7479962593238

> <r_psp_Prime_SelfCont>
-32.5363046611152

> <b_ppw_deleted_far_waters>
1

> <r_epik_Ionization_Penalty>
  3.9340

> <r_epik_Ionization_Penalty_Charging>
  2.5700

> <r_epik_Ionization_Penalty_Neutral>
  1.3640

> <r_epik_State_Penalty>
  3.8668

> <r_epik_Charging_Adjusted_Penalty>
6.43682661736206

> <i_epik_Tot_Q>
0

> <i_epik_Tot_abs_Q>
2

> <s_epik_Chemistry_Notes>
This compound has an imine and may undergo hydrolysis.

$$$$
1D
                    3D
 Structure written by MMmdl.
 61 64  0  0  1  0            999 V2000
   -3.2450    5.7480   20.2080 C   0  0  0  0  0  0
   -3.8130    7.0280   20.1030 C   0  0  0  0  0  0
   -1.8960    5.5640   19.8250 C   0  0  0  0  0  0
   -1.1280    6.6450   19.3710 C   0  0  0  0  0  0
   -1.7070    7.9240   19.2760 C   0  0  0  0  0  0
   -3.0560    8.1170   19.6400 C   0  0  0  0  0  0
   -3.6940    9.4740   19.5440 C   0  0  0  0  0  0
   -2.9810   10.4910   19.1390 N   0  0  0  0  0  0
   -4.9560    9.6140   19.8860 N   0  0  0  0  0  0
   -4.0900    4.5600   20.7130 C   0  0  0  0  0  0
   -4.0520    4.3820   22.2420 C   0  0  1  0  0  0
   -2.7330    4.7590   22.8850 C   0  0  0  0  0  0
   -2.7060    5.8960   23.3530 O   0  0  0  0  0  0
   -1.6530    3.9220   22.9120 N   0  0  0  0  0  0
   -1.5950    2.7340   22.0300 C   0  0  0  0  0  0
   -1.1190    1.5670   22.9310 C   0  0  0  0  0  0
    0.1300    3.3040   24.3760 C   0  0  0  0  0  0
   -0.3720    4.4270   23.4370 C   0  0  0  0  0  0
   -0.0250    1.9370   23.8060 N   0  3  0  0  0  0
   -5.1560    5.1010   22.8930 N   0  0  0  0  0  0
   -6.0160    4.3560   24.1820 S   0  0  0  0  0  0
   -7.0700    5.2380   24.6080 O   0  0  0  0  0  0
   -6.2660    2.9880   23.8750 O   0  0  0  0  0  0
   -4.7590    4.4100   25.3600 C   0  0  0  0  0  0
   -4.4710    5.6480   25.9580 C   0  0  0  0  0  0
   -3.4430    5.7550   26.9290 C   0  0  0  0  0  0
   -3.0190    3.3300   26.6770 C   0  0  0  0  0  0
   -2.7100    4.5860   27.2970 C   0  0  0  0  0  0
   -4.0540    3.2590   25.7070 C   0  0  0  0  0  0
   -1.6680    4.6280   28.2750 C   0  0  0  0  0  0
   -0.9450    3.4410   28.6250 C   0  0  0  0  0  0
   -1.2660    2.2110   28.0000 C   0  0  0  0  0  0
   -2.2910    2.1500   27.0330 C   0  0  0  0  0  0
   -4.8450    7.1852   20.3800 H   0  0  0  0  0  0
   -1.4478    4.5830   19.8808 H   0  0  0  0  0  0
   -0.0946    6.4951   19.0952 H   0  0  0  0  0  0
   -1.1184    8.7584   18.9242 H   0  0  0  0  0  0
   -1.9271   10.3470   18.8586 H   0  0  0  0  0  0
   -5.5344    8.7414   20.2237 H   0  0  0  0  0  0
   -5.1413    4.7096   20.4259 H   0  0  0  0  0  0
   -3.7166    3.6276   20.2646 H   0  0  0  0  0  0
   -4.2009    3.3102   22.4397 H   0  0  0  0  0  0
   -2.5941    2.5369   21.6142 H   0  0  0  0  0  0
   -0.8867    2.9208   21.2094 H   0  0  0  0  0  0
   -1.9528    1.2285   23.5636 H   0  0  0  0  0  0
   -0.7753    0.7337   22.3006 H   0  0  0  0  0  0
    1.1993    3.4528   24.5866 H   0  0  0  0  0  0
   -0.4368    3.3332   25.3183 H   0  0  0  0  0  0
    0.3218    4.6050   22.6021 H   0  0  0  0  0  0
   -0.5434    5.3690   23.9784 H   0  0  0  0  0  0
   -0.0474    1.3071   24.7075 H   0  0  0  0  0  0
   -5.3248    6.1654   22.6727 H   0  0  0  0  0  0
   -5.0340    6.5264   25.6791 H   0  0  0  0  0  0
   -3.2233    6.7116   27.3797 H   0  0  0  0  0  0
   -4.2952    2.3162   25.2386 H   0  0  0  0  0  0
   -1.4185    5.5609   28.7585 H   0  0  0  0  0  0
   -0.1581    3.4860   29.3633 H   0  0  0  0  0  0
   -0.7249    1.3141   28.2633 H   0  0  0  0  0  0
   -2.5257    1.2076   26.5605 H   0  0  0  0  0  0
   -5.4333   10.6037   19.8344 H   0  0  0  0  0  0
    0.9303    1.7912   23.2805 H   0  0  0  0  0  0
  1  2  2  0  0  0
  1  3  1  0  0  0
  1 10  1  0  0  0
  2  6  1  0  0  0
  2 34  1  0  0  0
  3  4  2  0  0  0
  3 35  1  0  0  0
  4  5  1  0  0  0
  4 36  1  0  0  0
  5  6  2  0  0  0
  5 37  1  0  0  0
  6  7  1  0  0  0
  7  8  2  0  0  0
  7  9  1  0  0  0
  8 38  1  0  0  0
  9 39  1  0  0  0
  9 60  1  0  0  0
 10 11  1  0  0  0
 10 40  1  0  0  0
 10 41  1  0  0  0
 11 12  1  0  0  0
 11 20  1  0  0  0
 11 42  1  0  0  0
 12 13  2  0  0  0
 12 14  1  0  0  0
 14 15  1  0  0  0
 14 18  1  0  0  0
 15 16  1  0  0  0
 15 43  1  0  0  0
 15 44  1  0  0  0
 16 19  1  0  0  0
 16 45  1  0  0  0
 16 46  1  0  0  0
 17 18  1  0  0  0
 17 19  1  0  0  0
 17 47  1  0  0  0
 17 48  1  0  0  0
 18 49  1  0  0  0
 18 50  1  0  0  0
 19 51  1  0  0  0
 19 61  1  0  0  0
 20 21  1  0  0  0
 20 52  1  0  0  0
 21 22  2  0  0  0
 21 23  2  0  0  0
 21 24  1  0  0  0
 24 25  2  0  0  0
 24 29  1  0  0  0
 25 26  1  0  0  0
 25 53  1  0  0  0
 26 28  2  0  0  0
 26 54  1  0  0  0
 27 28  1  0  0  0
 27 29  2  0  0  0
 27 33  1  0  0  0
 28 30  1  0  0  0
 29 55  1  0  0  0
 30 31  2  0  0  0
 30 56  1  0  0  0
 31 32  1  0  0  0
 31 57  1  0  0  0
 32 33  2  0  0  0
 32 58  1  0  0  0
 33 59  1  0  0  0
M  CHG  1  19   1
M  END
> <i_m_stars>
0

> <s_m_entry_id>
3

> <s_m_entry_name>
Structure

> <s_pdb_PDB_TITLE>
BOVINE TRYPSIN-INHIBITOR COMPLEX

> <s_pdb_PDB_ID>
1K1L

> <r_pdb_PDB_CRYST1_a>
63.277

> <r_pdb_PDB_CRYST1_b>
68.832

> <r_pdb_PDB_CRYST1_c>
63.715

> <r_pdb_PDB_CRYST1_alpha>
90

> <r_pdb_PDB_CRYST1_beta>
90

> <r_pdb_PDB_CRYST1_gamma>
90

> <s_pdb_PDB_CRYST1_Space_Group>
P 21 21 21

> <i_pdb_PDB_CRYST1_z>
4

> <s_pdb_PDB_CLASSIFICATION>
HYDROLASE

> <s_pdb_PDB_DEPOSITION_DATE>
25-SEP-01

> <s_pdb_PDB_format_version>
3.15

> <r_pdb_PDB_R>
0.166999995708466

> <r_pdb_PDB_RESOLUTION>
2.5

> <s_pdb_PDB_EXPDTA>
X-RAY DIFFRACTION

> <r_pdb_PDB_EXPDTA_TEMPERATURE>
287

> <s_pdb_PDB_REMARK_350_Biomolecule_1_Chains>
A

> <s_pdb_PDB_REMARK_350_Biomolecule_1_Transformation_1>
1.000000 0.000000 0.000000   0.000000;0.000000 1.000000 0.000000   0.000000;0.000000 0.000000 1.000000   0.000000

> <s_ppw_entry_id_backup>
1

> <b_ppw_prepared>
1

> <s_ppw_prepared_with_version>
2017-2

> <b_ppw_assigned_bond_orders>
1

> <b_ppw_added_hydrogens>
1

> <b_ppw_treated_metals>
1

> <b_ppw_created_disulfur>
1

> <i_psp_model_num>
0

> <r_psp_Prime_Coulomb>
-6995.33574555458

> <r_psp_Prime_Covalent>
3040.53625820119

> <r_psp_Prime_vdW>
215.071959013691

> <r_psp_Prime_Solv_GB>
-889.220839354606

> <r_psp_Prime_Lipo>
-493.852966165823

> <r_psp_Prime_Energy>
-5336.23182429585

> <s_psp_Prime_Energy_Force_Field>
OPLS3

> <s_psp_Prime_Energy_Solvent_Model>
VSGB2.1

> <r_psp_Prime_Hbond>
-156.14618951528

> <r_psp_Prime_Packing>
-24.7479962593238

> <r_psp_Prime_SelfCont>
-32.5363046611152

> <b_ppw_deleted_far_waters>
1

> <r_epik_Ionization_Penalty>
  3.8472

> <r_epik_Ionization_Penalty_Charging>
  0.1413

> <r_epik_Ionization_Penalty_Neutral>
  3.7059

> <r_epik_State_Penalty>
  4.0659

> <r_epik_Charging_Adjusted_Penalty>
4.2071864661917

> <i_epik_Tot_Q>
1

> <i_epik_Tot_abs_Q>
1

> <s_epik_Chemistry_Notes>
This compound has an imine and may undergo hydrolysis.

$$$$
1D
                    3D
 Structure written by MMmdl.
 61 64  0  0  1  0            999 V2000
   -3.2450    5.7480   20.2080 C   0  0  0  0  0  0
   -3.8130    7.0280   20.1030 C   0  0  0  0  0  0
   -1.8960    5.5640   19.8250 C   0  0  0  0  0  0
   -1.1280    6.6450   19.3710 C   0  0  0  0  0  0
   -1.7070    7.9240   19.2760 C   0  0  0  0  0  0
   -3.0560    8.1170   19.6400 C   0  0  0  0  0  0
   -3.6940    9.4740   19.5440 C   0  0  0  0  0  0
   -2.9810   10.4910   19.1390 N   0  0  0  0  0  0
   -4.9560    9.6140   19.8860 N   0  0  0  0  0  0
   -4.0900    4.5600   20.7130 C   0  0  0  0  0  0
   -4.0520    4.3820   22.2420 C   0  0  1  0  0  0
   -2.7330    4.7590   22.8850 C   0  0  0  0  0  0
   -2.7060    5.8960   23.3530 O   0  0  0  0  0  0
   -1.6530    3.9220   22.9120 N   0  0  0  0  0  0
   -1.5950    2.7340   22.0300 C   0  0  0  0  0  0
   -1.1190    1.5670   22.9310 C   0  0  0  0  0  0
    0.1300    3.3040   24.3760 C   0  0  0  0  0  0
   -0.3720    4.4270   23.4370 C   0  0  0  0  0  0
   -0.0250    1.9370   23.8060 N   0  3  0  0  0  0
   -5.1560    5.1010   22.8930 N   0  0  0  0  0  0
   -6.0160    4.3560   24.1820 S   0  0  0  0  0  0
   -7.0700    5.2380   24.6080 O   0  0  0  0  0  0
   -6.2660    2.9880   23.8750 O   0  0  0  0  0  0
   -4.7590    4.4100   25.3600 C   0  0  0  0  0  0
   -4.4710    5.6480   25.9580 C   0  0  0  0  0  0
   -3.4430    5.7550   26.9290 C   0  0  0  0  0  0
   -3.0190    3.3300   26.6770 C   0  0  0  0  0  0
   -2.7100    4.5860   27.2970 C   0  0  0  0  0  0
   -4.0540    3.2590   25.7070 C   0  0  0  0  0  0
   -1.6680    4.6280   28.2750 C   0  0  0  0  0  0
   -0.9450    3.4410   28.6250 C   0  0  0  0  0  0
   -1.2660    2.2110   28.0000 C   0  0  0  0  0  0
   -2.2910    2.1500   27.0330 C   0  0  0  0  0  0
   -4.8450    7.1852   20.3800 H   0  0  0  0  0  0
   -1.4478    4.5830   19.8808 H   0  0  0  0  0  0
   -0.0946    6.4951   19.0952 H   0  0  0  0  0  0
   -1.1184    8.7584   18.9242 H   0  0  0  0  0  0
   -3.4345   11.4913   19.0784 H   0  0  0  0  0  0
   -5.5344    8.7414   20.2237 H   0  0  0  0  0  0
   -5.1413    4.7096   20.4259 H   0  0  0  0  0  0
   -3.7166    3.6276   20.2646 H   0  0  0  0  0  0
   -4.2009    3.3102   22.4397 H   0  0  0  0  0  0
   -2.5941    2.5369   21.6142 H   0  0  0  0  0  0
   -0.8867    2.9208   21.2094 H   0  0  0  0  0  0
   -1.9528    1.2285   23.5636 H   0  0  0  0  0  0
   -0.7753    0.7337   22.3006 H   0  0  0  0  0  0
    1.1993    3.4528   24.5866 H   0  0  0  0  0  0
   -0.4368    3.3332   25.3183 H   0  0  0  0  0  0
    0.3218    4.6050   22.6021 H   0  0  0  0  0  0
   -0.5434    5.3690   23.9784 H   0  0  0  0  0  0
   -0.0474    1.3071   24.7075 H   0  0  0  0  0  0
   -5.3248    6.1654   22.6727 H   0  0  0  0  0  0
   -5.0340    6.5264   25.6791 H   0  0  0  0  0  0
   -3.2233    6.7116   27.3797 H   0  0  0  0  0  0
   -4.2952    2.3162   25.2386 H   0  0  0  0  0  0
   -1.4185    5.5609   28.7585 H   0  0  0  0  0  0
   -0.1581    3.4860   29.3633 H   0  0  0  0  0  0
   -0.7249    1.3141   28.2633 H   0  0  0  0  0  0
   -2.5257    1.2076   26.5605 H   0  0  0  0  0  0
   -5.4333   10.6037   19.8344 H   0  0  0  0  0  0
    0.9303    1.7912   23.2805 H   0  0  0  0  0  0
  1  2  2  0  0  0
  1  3  1  0  0  0
  1 10  1  0  0  0
  2  6  1  0  0  0
  2 34  1  0  0  0
  3  4  2  0  0  0
  3 35  1  0  0  0
  4  5  1  0  0  0
  4 36  1  0  0  0
  5  6  2  0  0  0
  5 37  1  0  0  0
  6  7  1  0  0  0
  7  8  2  0  0  0
  7  9  1  0  0  0
  8 38  1  0  0  0
  9 39  1  0  0  0
  9 60  1  0  0  0
 10 11  1  0  0  0
 10 40  1  0  0  0
 10 41  1  0  0  0
 11 12  1  0  0  0
 11 20  1  0  0  0
 11 42  1  0  0  0
 12 13  2  0  0  0
 12 14  1  0  0  0
 14 15  1  0  0  0
 14 18  1  0  0  0
 15 16  1  0  0  0
 15 43  1  0  0  0
 15 44  1  0  0  0
 16 19  1  0  0  0
 16 45  1  0  0  0
 16 46  1  0  0  0
 17 18  1  0  0  0
 17 19  1  0  0  0
 17 47  1  0  0  0
 17 48  1  0  0  0
 18 49  1  0  0  0
 18 50  1  0  0  0
 19 51  1  0  0  0
 19 61  1  0  0  0
 20 21  1  0  0  0
 20 52  1  0  0  0
 21 22  2  0  0  0
 21 23  2  0  0  0
 21 24  1  0  0  0
 24 25  2  0  0  0
 24 29  1  0  0  0
 25 26  1  0  0  0
 25 53  1  0  0  0
 26 28  2  0  0  0
 26 54  1  0  0  0
 27 28  1  0  0  0
 27 29  2  0  0  0
 27 33  1  0  0  0
 28 30  1  0  0  0
 29 55  1  0  0  0
 30 31  2  0  0  0
 30 56  1  0  0  0
 31 32  1  0  0  0
 31 57  1  0  0  0
 32 33  2  0  0  0
 32 58  1  0  0  0
 33 59  1  0  0  0
M  CHG  1  19   1
M  END
> <i_m_stars>
0

> <s_m_entry_id>
3

> <s_m_entry_name>
Structure

> <s_pdb_PDB_TITLE>
BOVINE TRYPSIN-INHIBITOR COMPLEX

> <s_pdb_PDB_ID>
1K1L

> <r_pdb_PDB_CRYST1_a>
63.277

> <r_pdb_PDB_CRYST1_b>
68.832

> <r_pdb_PDB_CRYST1_c>
63.715

> <r_pdb_PDB_CRYST1_alpha>
90

> <r_pdb_PDB_CRYST1_beta>
90

> <r_pdb_PDB_CRYST1_gamma>
90

> <s_pdb_PDB_CRYST1_Space_Group>
P 21 21 21

> <i_pdb_PDB_CRYST1_z>
4

> <s_pdb_PDB_CLASSIFICATION>
HYDROLASE

> <s_pdb_PDB_DEPOSITION_DATE>
25-SEP-01

> <s_pdb_PDB_format_version>
3.15

> <r_pdb_PDB_R>
0.166999995708466

> <r_pdb_PDB_RESOLUTION>
2.5

> <s_pdb_PDB_EXPDTA>
X-RAY DIFFRACTION

> <r_pdb_PDB_EXPDTA_TEMPERATURE>
287

> <s_pdb_PDB_REMARK_350_Biomolecule_1_Chains>
A

> <s_pdb_PDB_REMARK_350_Biomolecule_1_Transformation_1>
1.000000 0.000000 0.000000   0.000000;0.000000 1.000000 0.000000   0.000000;0.000000 0.000000 1.000000   0.000000

> <s_ppw_entry_id_backup>
1

> <b_ppw_prepared>
1

> <s_ppw_prepared_with_version>
2017-2

> <b_ppw_assigned_bond_orders>
1

> <b_ppw_added_hydrogens>
1

> <b_ppw_treated_metals>
1

> <b_ppw_created_disulfur>
1

> <i_psp_model_num>
0

> <r_psp_Prime_Coulomb>
-6995.33574555458

> <r_psp_Prime_Covalent>
3040.53625820119

> <r_psp_Prime_vdW>
215.071959013691

> <r_psp_Prime_Solv_GB>
-889.220839354606

> <r_psp_Prime_Lipo>
-493.852966165823

> <r_psp_Prime_Energy>
-5336.23182429585

> <s_psp_Prime_Energy_Force_Field>
OPLS3

> <s_psp_Prime_Energy_Solvent_Model>
VSGB2.1

> <r_psp_Prime_Hbond>
-156.14618951528

> <r_psp_Prime_Packing>
-24.7479962593238

> <r_psp_Prime_SelfCont>
-32.5363046611152

> <b_ppw_deleted_far_waters>
1

> <r_epik_Ionization_Penalty>
  3.8472

> <r_epik_Ionization_Penalty_Charging>
  0.1413

> <r_epik_Ionization_Penalty_Neutral>
  3.7059

> <r_epik_State_Penalty>
  4.0659

> <r_epik_Charging_Adjusted_Penalty>
4.2071864661917

> <i_epik_Tot_Q>
1

> <i_epik_Tot_abs_Q>
1

> <s_epik_Chemistry_Notes>
This compound has an imine and may undergo hydrolysis.

$$$$
1D
                    3D
 Structure written by MMmdl.
 60 63  0  0  1  0            999 V2000
   -3.2450    5.7480   20.2080 C   0  0  0  0  0  0
   -3.8130    7.0280   20.1030 C   0  0  0  0  0  0
   -1.8960    5.5640   19.8250 C   0  0  0  0  0  0
   -1.1280    6.6450   19.3710 C   0  0  0  0  0  0
   -1.7070    7.9240   19.2760 C   0  0  0  0  0  0
   -3.0560    8.1170   19.6400 C   0  0  0  0  0  0
   -3.6940    9.4740   19.5440 C   0  0  0  0  0  0
   -2.9810   10.4910   19.1390 N   0  0  0  0  0  0
   -4.9560    9.6140   19.8860 N   0  0  0  0  0  0
   -4.0900    4.5600   20.7130 C   0  0  0  0  0  0
   -4.0520    4.3820   22.2420 C   0  0  1  0  0  0
   -2.7330    4.7590   22.8850 C   0  0  0  0  0  0
   -2.7060    5.8960   23.3530 O   0  0  0  0  0  0
   -1.6530    3.9220   22.9120 N   0  0  0  0  0  0
   -1.5950    2.7340   22.0300 C   0  0  0  0  0  0
   -1.1190    1.5670   22.9310 C   0  0  0  0  0  0
    0.1300    3.3040   24.3760 C   0  0  0  0  0  0
   -0.3720    4.4270   23.4370 C   0  0  0  0  0  0
   -0.0250    1.9370   23.8060 N   0  0  0  0  0  0
   -5.1560    5.1010   22.8930 N   0  0  0  0  0  0
   -6.0160    4.3560   24.1820 S   0  0  0  0  0  0
   -7.0700    5.2380   24.6080 O   0  0  0  0  0  0
   -6.2660    2.9880   23.8750 O   0  0  0  0  0  0
   -4.7590    4.4100   25.3600 C   0  0  0  0  0  0
   -4.4710    5.6480   25.9580 C   0  0  0  0  0  0
   -3.4430    5.7550   26.9290 C   0  0  0  0  0  0
   -3.0190    3.3300   26.6770 C   0  0  0  0  0  0
   -2.7100    4.5860   27.2970 C   0  0  0  0  0  0
   -4.0540    3.2590   25.7070 C   0  0  0  0  0  0
   -1.6680    4.6280   28.2750 C   0  0  0  0  0  0
   -0.9450    3.4410   28.6250 C   0  0  0  0  0  0
   -1.2660    2.2110   28.0000 C   0  0  0  0  0  0
   -2.2910    2.1500   27.0330 C   0  0  0  0  0  0
   -4.8450    7.1852   20.3800 H   0  0  0  0  0  0
   -1.4478    4.5830   19.8808 H   0  0  0  0  0  0
   -0.0946    6.4951   19.0952 H   0  0  0  0  0  0
   -1.1184    8.7584   18.9242 H   0  0  0  0  0  0
   -1.9271   10.3470   18.8586 H   0  0  0  0  0  0
   -5.5344    8.7414   20.2237 H   0  0  0  0  0  0
   -5.1413    4.7096   20.4259 H   0  0  0  0  0  0
   -3.7166    3.6276   20.2646 H   0  0  0  0  0  0
   -4.2009    3.3102   22.4397 H   0  0  0  0  0  0
   -2.5941    2.5369   21.6142 H   0  0  0  0  0  0
   -0.8867    2.9208   21.2094 H   0  0  0  0  0  0
   -1.9528    1.2285   23.5636 H   0  0  0  0  0  0
   -0.7753    0.7337   22.3006 H   0  0  0  0  0  0
    1.1993    3.4528   24.5866 H   0  0  0  0  0  0
   -0.4368    3.3332   25.3183 H   0  0  0  0  0  0
    0.3218    4.6050   22.6021 H   0  0  0  0  0  0
   -0.5434    5.3690   23.9784 H   0  0  0  0  0  0
   -5.3248    6.1654   22.6727 H   0  0  0  0  0  0
   -5.0340    6.5264   25.6791 H   0  0  0  0  0  0
   -3.2233    6.7116   27.3797 H   0  0  0  0  0  0
   -4.2952    2.3162   25.2386 H   0  0  0  0  0  0
   -1.4185    5.5609   28.7585 H   0  0  0  0  0  0
   -0.1581    3.4860   29.3633 H   0  0  0  0  0  0
   -0.7249    1.3141   28.2633 H   0  0  0  0  0  0
   -2.5257    1.2076   26.5605 H   0  0  0  0  0  0
   -5.4333   10.6037   19.8344 H   0  0  0  0  0  0
   -0.0474    1.3071   24.7075 H   0  0  0  0  0  0
  1  2  2  0  0  0
  1  3  1  0  0  0
  1 10  1  0  0  0
  2  6  1  0  0  0
  2 34  1  0  0  0
  3  4  2  0  0  0
  3 35  1  0  0  0
  4  5  1  0  0  0
  4 36  1  0  0  0
  5  6  2  0  0  0
  5 37  1  0  0  0
  6  7  1  0  0  0
  7  8  2  0  0  0
  7  9  1  0  0  0
  8 38  1  0  0  0
  9 39  1  0  0  0
  9 59  1  0  0  0
 10 11  1  0  0  0
 10 40  1  0  0  0
 10 41  1  0  0  0
 11 12  1  0  0  0
 11 20  1  0  0  0
 11 42  1  0  0  0
 12 13  2  0  0  0
 12 14  1  0  0  0
 14 15  1  0  0  0
 14 18  1  0  0  0
 15 16  1  0  0  0
 15 43  1  0  0  0
 15 44  1  0  0  0
 16 19  1  0  0  0
 16 45  1  0  0  0
 16 46  1  0  0  0
 17 18  1  0  0  0
 17 19  1  0  0  0
 17 47  1  0  0  0
 17 48  1  0  0  0
 18 49  1  0  0  0
 18 50  1  0  0  0
 19 60  1  0  0  0
 20 21  1  0  0  0
 20 51  1  0  0  0
 21 22  2  0  0  0
 21 23  2  0  0  0
 21 24  1  0  0  0
 24 25  2  0  0  0
 24 29  1  0  0  0
 25 26  1  0  0  0
 25 52  1  0  0  0
 26 28  2  0  0  0
 26 53  1  0  0  0
 27 28  1  0  0  0
 27 29  2  0  0  0
 27 33  1  0  0  0
 28 30  1  0  0  0
 29 54  1  0  0  0
 30 31  2  0  0  0
 30 55  1  0  0  0
 31 32  1  0  0  0
 31 56  1  0  0  0
 32 33  2  0  0  0
 32 57  1  0  0  0
 33 58  1  0  0  0
M  END
> <i_m_stars>
0

> <s_m_entry_id>
3

> <s_m_entry_name>
Structure

> <s_pdb_PDB_TITLE>
BOVINE TRYPSIN-INHIBITOR COMPLEX

> <s_pdb_PDB_ID>
1K1L

> <r_pdb_PDB_CRYST1_a>
63.277

> <r_pdb_PDB_CRYST1_b>
68.832

> <r_pdb_PDB_CRYST1_c>
63.715

> <r_pdb_PDB_CRYST1_alpha>
90

> <r_pdb_PDB_CRYST1_beta>
90

> <r_pdb_PDB_CRYST1_gamma>
90

> <s_pdb_PDB_CRYST1_Space_Group>
P 21 21 21

> <i_pdb_PDB_CRYST1_z>
4

> <s_pdb_PDB_CLASSIFICATION>
HYDROLASE

> <s_pdb_PDB_DEPOSITION_DATE>
25-SEP-01

> <s_pdb_PDB_format_version>
3.15

> <r_pdb_PDB_R>
0.166999995708466

> <r_pdb_PDB_RESOLUTION>
2.5

> <s_pdb_PDB_EXPDTA>
X-RAY DIFFRACTION

> <r_pdb_PDB_EXPDTA_TEMPERATURE>
287

> <s_pdb_PDB_REMARK_350_Biomolecule_1_Chains>
A

> <s_pdb_PDB_REMARK_350_Biomolecule_1_Transformation_1>
1.000000 0.000000 0.000000   0.000000;0.000000 1.000000 0.000000   0.000000;0.000000 0.000000 1.000000   0.000000

> <s_ppw_entry_id_backup>
1

> <b_ppw_prepared>
1

> <s_ppw_prepared_with_version>
2017-2

> <b_ppw_assigned_bond_orders>
1

> <b_ppw_added_hydrogens>
1

> <b_ppw_treated_metals>
1

> <b_ppw_created_disulfur>
1

> <i_psp_model_num>
0

> <r_psp_Prime_Coulomb>
-6995.33574555458

> <r_psp_Prime_Covalent>
3040.53625820119

> <r_psp_Prime_vdW>
215.071959013691

> <r_psp_Prime_Solv_GB>
-889.220839354606

> <r_psp_Prime_Lipo>
-493.852966165823

> <r_psp_Prime_Energy>
-5336.23182429585

> <s_psp_Prime_Energy_Force_Field>
OPLS3

> <s_psp_Prime_Energy_Solvent_Model>
VSGB2.1

> <r_psp_Prime_Hbond>
-156.14618951528

> <r_psp_Prime_Packing>
-24.7479962593238

> <r_psp_Prime_SelfCont>
-32.5363046611152

> <b_ppw_deleted_far_waters>
1

> <r_epik_Ionization_Penalty>
  4.6217

> <r_epik_Ionization_Penalty_Charging>
  0.0000

> <r_epik_Ionization_Penalty_Neutral>
  4.6217

> <r_epik_State_Penalty>
  4.9857

> <r_epik_Charging_Adjusted_Penalty>
4.98565781059824

> <i_epik_Tot_Q>
0

> <i_epik_Tot_abs_Q>
0

> <s_epik_Chemistry_Notes>
This compound has an imine and may undergo hydrolysis.

$$$$
1D
                    3D
 Structure written by MMmdl.
 60 63  0  0  1  0            999 V2000
   -3.2450    5.7480   20.2080 C   0  0  0  0  0  0
   -3.8130    7.0280   20.1030 C   0  0  0  0  0  0
   -1.8960    5.5640   19.8250 C   0  0  0  0  0  0
   -1.1280    6.6450   19.3710 C   0  0  0  0  0  0
   -1.7070    7.9240   19.2760 C   0  0  0  0  0  0
   -3.0560    8.1170   19.6400 C   0  0  0  0  0  0
   -3.6940    9.4740   19.5440 C   0  0  0  0  0  0
   -2.9810   10.4910   19.1390 N   0  0  0  0  0  0
   -4.9560    9.6140   19.8860 N   0  0  0  0  0  0
   -4.0900    4.5600   20.7130 C   0  0  0  0  0  0
   -4.0520    4.3820   22.2420 C   0  0  1  0  0  0
   -2.7330    4.7590   22.8850 C   0  0  0  0  0  0
   -2.7060    5.8960   23.3530 O   0  0  0  0  0  0
   -1.6530    3.9220   22.9120 N   0  0  0  0  0  0
   -1.5950    2.7340   22.0300 C   0  0  0  0  0  0
   -1.1190    1.5670   22.9310 C   0  0  0  0  0  0
    0.1300    3.3040   24.3760 C   0  0  0  0  0  0
   -0.3720    4.4270   23.4370 C   0  0  0  0  0  0
   -0.0250    1.9370   23.8060 N   0  0  0  0  0  0
   -5.1560    5.1010   22.8930 N   0  0  0  0  0  0
   -6.0160    4.3560   24.1820 S   0  0  0  0  0  0
   -7.0700    5.2380   24.6080 O   0  0  0  0  0  0
   -6.2660    2.9880   23.8750 O   0  0  0  0  0  0
   -4.7590    4.4100   25.3600 C   0  0  0  0  0  0
   -4.4710    5.6480   25.9580 C   0  0  0  0  0  0
   -3.4430    5.7550   26.9290 C   0  0  0  0  0  0
   -3.0190    3.3300   26.6770 C   0  0  0  0  0  0
   -2.7100    4.5860   27.2970 C   0  0  0  0  0  0
   -4.0540    3.2590   25.7070 C   0  0  0  0  0  0
   -1.6680    4.6280   28.2750 C   0  0  0  0  0  0
   -0.9450    3.4410   28.6250 C   0  0  0  0  0  0
   -1.2660    2.2110   28.0000 C   0  0  0  0  0  0
   -2.2910    2.1500   27.0330 C   0  0  0  0  0  0
   -4.8450    7.1852   20.3800 H   0  0  0  0  0  0
   -1.4478    4.5830   19.8808 H   0  0  0  0  0  0
   -0.0946    6.4951   19.0952 H   0  0  0  0  0  0
   -1.1184    8.7584   18.9242 H   0  0  0  0  0  0
   -3.4345   11.4913   19.0784 H   0  0  0  0  0  0
   -5.5344    8.7414   20.2237 H   0  0  0  0  0  0
   -5.1413    4.7096   20.4259 H   0  0  0  0  0  0
   -3.7166    3.6276   20.2646 H   0  0  0  0  0  0
   -4.2009    3.3102   22.4397 H   0  0  0  0  0  0
   -2.5941    2.5369   21.6142 H   0  0  0  0  0  0
   -0.8867    2.9208   21.2094 H   0  0  0  0  0  0
   -1.9528    1.2285   23.5636 H   0  0  0  0  0  0
   -0.7753    0.7337   22.3006 H   0  0  0  0  0  0
    1.1993    3.4528   24.5866 H   0  0  0  0  0  0
   -0.4368    3.3332   25.3183 H   0  0  0  0  0  0
    0.3218    4.6050   22.6021 H   0  0  0  0  0  0
   -0.5434    5.3690   23.9784 H   0  0  0  0  0  0
   -5.3248    6.1654   22.6727 H   0  0  0  0  0  0
   -5.0340    6.5264   25.6791 H   0  0  0  0  0  0
   -3.2233    6.7116   27.3797 H   0  0  0  0  0  0
   -4.2952    2.3162   25.2386 H   0  0  0  0  0  0
   -1.4185    5.5609   28.7585 H   0  0  0  0  0  0
   -0.1581    3.4860   29.3633 H   0  0  0  0  0  0
   -0.7249    1.3141   28.2633 H   0  0  0  0  0  0
   -2.5257    1.2076   26.5605 H   0  0  0  0  0  0
   -5.4333   10.6037   19.8344 H   0  0  0  0  0  0
   -0.0474    1.3071   24.7075 H   0  0  0  0  0  0
  1  2  2  0  0  0
  1  3  1  0  0  0
  1 10  1  0  0  0
  2  6  1  0  0  0
  2 34  1  0  0  0
  3  4  2  0  0  0
  3 35  1  0  0  0
  4  5  1  0  0  0
  4 36  1  0  0  0
  5  6  2  0  0  0
  5 37  1  0  0  0
  6  7  1  0  0  0
  7  8  2  0  0  0
  7  9  1  0  0  0
  8 38  1  0  0  0
  9 39  1  0  0  0
  9 59  1  0  0  0
 10 11  1  0  0  0
 10 40  1  0  0  0
 10 41  1  0  0  0
 11 12  1  0  0  0
 11 20  1  0  0  0
 11 42  1  0  0  0
 12 13  2  0  0  0
 12 14  1  0  0  0
 14 15  1  0  0  0
 14 18  1  0  0  0
 15 16  1  0  0  0
 15 43  1  0  0  0
 15 44  1  0  0  0
 16 19  1  0  0  0
 16 45  1  0  0  0
 16 46  1  0  0  0
 17 18  1  0  0  0
 17 19  1  0  0  0
 17 47  1  0  0  0
 17 48  1  0  0  0
 18 49  1  0  0  0
 18 50  1  0  0  0
 19 60  1  0  0  0
 20 21  1  0  0  0
 20 51  1  0  0  0
 21 22  2  0  0  0
 21 23  2  0  0  0
 21 24  1  0  0  0
 24 25  2  0  0  0
 24 29  1  0  0  0
 25 26  1  0  0  0
 25 52  1  0  0  0
 26 28  2  0  0  0
 26 53  1  0  0  0
 27 28  1  0  0  0
 27 29  2  0  0  0
 27 33  1  0  0  0
 28 30  1  0  0  0
 29 54  1  0  0  0
 30 31  2  0  0  0
 30 55  1  0  0  0
 31 32  1  0  0  0
 31 56  1  0  0  0
 32 33  2  0  0  0
 32 57  1  0  0  0
 33 58  1  0  0  0
M  END
> <i_m_stars>
0

> <s_m_entry_id>
3

> <s_m_entry_name>
Structure

> <s_pdb_PDB_TITLE>
BOVINE TRYPSIN-INHIBITOR COMPLEX

> <s_pdb_PDB_ID>
1K1L

> <r_pdb_PDB_CRYST1_a>
63.277

> <r_pdb_PDB_CRYST1_b>
68.832

> <r_pdb_PDB_CRYST1_c>
63.715

> <r_pdb_PDB_CRYST1_alpha>
90

> <r_pdb_PDB_CRYST1_beta>
90

> <r_pdb_PDB_CRYST1_gamma>
90

> <s_pdb_PDB_CRYST1_Space_Group>
P 21 21 21

> <i_pdb_PDB_CRYST1_z>
4

> <s_pdb_PDB_CLASSIFICATION>
HYDROLASE

> <s_pdb_PDB_DEPOSITION_DATE>
25-SEP-01

> <s_pdb_PDB_format_version>
3.15

> <r_pdb_PDB_R>
0.166999995708466

> <r_pdb_PDB_RESOLUTION>
2.5

> <s_pdb_PDB_EXPDTA>
X-RAY DIFFRACTION

> <r_pdb_PDB_EXPDTA_TEMPERATURE>
287

> <s_pdb_PDB_REMARK_350_Biomolecule_1_Chains>
A

> <s_pdb_PDB_REMARK_350_Biomolecule_1_Transformation_1>
1.000000 0.000000 0.000000   0.000000;0.000000 1.000000 0.000000   0.000000;0.000000 0.000000 1.000000   0.000000

> <s_ppw_entry_id_backup>
1

> <b_ppw_prepared>
1

> <s_ppw_prepared_with_version>
2017-2

> <b_ppw_assigned_bond_orders>
1

> <b_ppw_added_hydrogens>
1

> <b_ppw_treated_metals>
1

> <b_ppw_created_disulfur>
1

> <i_psp_model_num>
0

> <r_psp_Prime_Coulomb>
-6995.33574555458

> <r_psp_Prime_Covalent>
3040.53625820119

> <r_psp_Prime_vdW>
215.071959013691

> <r_psp_Prime_Solv_GB>
-889.220839354606

> <r_psp_Prime_Lipo>
-493.852966165823

> <r_psp_Prime_Energy>
-5336.23182429585

> <s_psp_Prime_Energy_Force_Field>
OPLS3

> <s_psp_Prime_Energy_Solvent_Model>
VSGB2.1

> <r_psp_Prime_Hbond>
-156.14618951528

> <r_psp_Prime_Packing>
-24.7479962593238

> <r_psp_Prime_SelfCont>
-32.5363046611152

> <b_ppw_deleted_far_waters>
1

> <r_epik_Ionization_Penalty>
  4.6217

> <r_epik_Ionization_Penalty_Charging>
  0.0000

> <r_epik_Ionization_Penalty_Neutral>
  4.6217

> <r_epik_State_Penalty>
  4.9857

> <r_epik_Charging_Adjusted_Penalty>
4.98565781059824

> <i_epik_Tot_Q>
0

> <i_epik_Tot_abs_Q>
0

> <s_epik_Chemistry_Notes>
This compound has an imine and may undergo hydrolysis.

$$$$
