@<TRIPOS>MOLECULE
1D
62   65    1
SMALL
USER_CHARGES


@<TRIPOS>ATOM
      1 C65        -3.2450    5.7480   20.2080 C.ar      1 FD3        -0.0947 
      2 C66        -3.8130    7.0280   20.1030 C.ar      1 FD3        -0.0631 
      3 C64        -1.8960    5.5640   19.8250 C.ar      1 FD3        -0.0993 
      4 C63        -1.1280    6.6450   19.3710 C.ar      1 FD3        -0.1329 
      5 C62        -1.7070    7.9240   19.2760 C.ar      1 FD3        -0.1033 
      6 C61        -3.0560    8.1170   19.6400 C.ar      1 FD3        -0.0286 
      7 C25        -3.6940    9.4740   19.5440 C.cat     1 FD3         0.5129 
      8 N43        -2.9810   10.4910   19.1390 N.pl3     1 FD3        -0.8455 
      9 N54        -4.9560    9.6140   19.8860 N.pl3     1 FD3        -0.7625 
     10 C34        -4.0900    4.5600   20.7130 C.3       1 FD3        -0.1161 
     11 C31        -4.0520    4.3820   22.2420 C.3       1 FD3         0.0713 
     12 C35        -2.7330    4.7590   22.8850 C.2       1 FD3         0.4944 
     13 O36        -2.7060    5.8960   23.3530 O.2       1 FD3        -0.5189 
     14 N81        -1.6530    3.9220   22.9120 N.am      1 FD3        -0.3386 
     15 C71        -1.5950    2.7340   22.0300 C.3       1 FD3         0.0314 
     16 C72        -1.1190    1.5670   22.9310 C.3       1 FD3         0.0243 
     17 C74         0.1300    3.3040   24.3760 C.3       1 FD3         0.0243 
     18 C75        -0.3720    4.4270   23.4370 C.3       1 FD3         0.0314 
     19 N40        -0.0250    1.9370   23.8060 N.4       1 FD3        -0.7449 
     20 N29        -5.1560    5.1010   22.8930 N.pl3     1 FD3        -0.5369 
     21 S12        -6.0160    4.3560   24.1820 S.o2      1 FD3         0.9199 
     22 O32        -7.0700    5.2380   24.6080 O.2       1 FD3        -0.4818 
     23 O33        -6.2660    2.9880   23.8750 O.2       1 FD3        -0.4818 
     24 C2         -4.7590    4.4100   25.3600 C.ar      1 FD3        -0.2033 
     25 C3         -4.4710    5.6480   25.9580 C.ar      1 FD3        -0.0512 
     26 C4         -3.4430    5.7550   26.9290 C.ar      1 FD3        -0.1259 
     27 C9         -3.0190    3.3300   26.6770 C.ar      1 FD3        -0.0584 
     28 C10        -2.7100    4.5860   27.2970 C.ar      1 FD3         0.0011 
     29 C1         -4.0540    3.2590   25.7070 C.ar      1 FD3        -0.0076 
     30 C5         -1.6680    4.6280   28.2750 C.ar      1 FD3        -0.1279 
     31 C6         -0.9450    3.4410   28.6250 C.ar      1 FD3        -0.1043 
     32 C7         -1.2660    2.2110   28.0000 C.ar      1 FD3        -0.1286 
     33 C8         -2.2910    2.1500   27.0330 C.ar      1 FD3        -0.1031 
     34 H66        -4.8450    7.1852   20.3800 H         1 FD3         0.1510 
     35 H64        -1.4478    4.5830   19.8808 H         1 FD3         0.1314 
     36 H63        -0.0946    6.4951   19.0952 H         1 FD3         0.1361 
     37 H62        -1.1184    8.7584   18.9242 H         1 FD3         0.1284 
     38 H431       -1.9271   10.3470   18.8586 H         1 FD3         0.3508 
     39 H432       -3.4345   11.4913   19.0784 H         1 FD3         0.3508 
     40 HN54       -5.5344    8.7414   20.2237 H         1 FD3         0.3288 
     41 H341       -5.1413    4.7096   20.4259 H         1 FD3         0.0780 
     42 H342       -3.7166    3.6276   20.2646 H         1 FD3         0.0780 
     43 H31        -4.2009    3.3102   22.4397 H         1 FD3         0.1313 
     44 H711       -2.5941    2.5369   21.6142 H         1 FD3         0.0890 
     45 H712       -0.8867    2.9208   21.2094 H         1 FD3         0.0890 
     46 H721       -1.9528    1.2285   23.5636 H         1 FD3         0.0687 
     47 H722       -0.7753    0.7337   22.3006 H         1 FD3         0.0687 
     48 H741        1.1993    3.4528   24.5866 H         1 FD3         0.0687 
     49 H742       -0.4368    3.3332   25.3183 H         1 FD3         0.0687 
     50 H751        0.3218    4.6050   22.6021 H         1 FD3         0.0890 
     51 H752       -0.5434    5.3690   23.9784 H         1 FD3         0.0890 
     52 HN40       -0.0474    1.3071   24.7075 H         1 FD3         0.3806 
     53 HN29       -5.3248    6.1654   22.6727 H         1 FD3         0.2866 
     54 H3         -5.0340    6.5264   25.6791 H         1 FD3         0.1579 
     55 H4         -3.2233    6.7116   27.3797 H         1 FD3         0.1414 
     56 H1         -4.2952    2.3162   25.2386 H         1 FD3         0.1389 
     57 H5         -1.4185    5.5609   28.7585 H         1 FD3         0.1385 
     58 H6         -0.1581    3.4860   29.3633 H         1 FD3         0.1362 
     59 H7         -0.7249    1.3141   28.2633 H         1 FD3         0.1366 
     60 H8         -2.5257    1.2076   26.5605 H         1 FD3         0.1360 
     61 HN54       -5.4333   10.6037   19.8344 H         1 FD3         0.0000 
     62 HN40        0.9303    1.7912   23.2805 H         1 FD3         0.0000 
@<TRIPOS>BOND
     1    1    2 ar   
     2    1    3 ar   
     3    1   10 1    
     4    2    6 ar   
     5    2   34 1    
     6    3    4 ar   
     7    3   35 1    
     8    4    5 ar   
     9    4   36 1    
    10    5    6 ar   
    11    5   37 1    
    12    6    7 1    
    13    7    8 ar   
    14    7    9 ar   
    15    8   38 1    
    16    8   39 1    
    17    9   40 1    
    18    9   61 1    
    19   10   11 1    
    20   10   41 1    
    21   10   42 1    
    22   11   12 1    
    23   11   20 1    
    24   11   43 1    
    25   12   13 2    
    26   12   14 am   BACKBONE|DICT|INTERRES
    27   14   15 1    
    28   14   18 1    
    29   15   16 1    
    30   15   44 1    
    31   15   45 1    
    32   16   19 1    
    33   16   46 1    
    34   16   47 1    
    35   17   18 1    
    36   17   19 1    
    37   17   48 1    
    38   17   49 1    
    39   18   50 1    
    40   18   51 1    
    41   19   52 1    
    42   19   62 1    
    43   20   21 1    
    44   20   53 1    
    45   21   22 2    
    46   21   23 2    
    47   21   24 1    
    48   24   25 ar   
    49   24   29 ar   
    50   25   26 ar   
    51   25   54 1    
    52   26   28 ar   
    53   26   55 1    
    54   27   28 ar   
    55   27   29 ar   
    56   27   33 ar   
    57   28   30 ar   
    58   29   56 1    
    59   30   31 ar   
    60   30   57 1    
    61   31   32 ar   
    62   31   58 1    
    63   32   33 ar   
    64   32   59 1    
    65   33   60 1    
@<TRIPOS>SUBSTRUCTURE
     1 FD3         1 GROUP             0 A     ****    0 ROOT    
@<TRIPOS>MOLECULE
1D
61   64    1
SMALL
USER_CHARGES


@<TRIPOS>ATOM
      1 C65        -3.2450    5.7480   20.2080 C.ar      1 FD3        -0.0947 
      2 C66        -3.8130    7.0280   20.1030 C.ar      1 FD3        -0.0631 
      3 C64        -1.8960    5.5640   19.8250 C.ar      1 FD3        -0.0993 
      4 C63        -1.1280    6.6450   19.3710 C.ar      1 FD3        -0.1329 
      5 C62        -1.7070    7.9240   19.2760 C.ar      1 FD3        -0.1033 
      6 C61        -3.0560    8.1170   19.6400 C.ar      1 FD3        -0.0286 
      7 C25        -3.6940    9.4740   19.5440 C.cat     1 FD3         0.5129 
      8 N43        -2.9810   10.4910   19.1390 N.pl3     1 FD3        -0.8455 
      9 N54        -4.9560    9.6140   19.8860 N.pl3     1 FD3        -0.7625 
     10 C34        -4.0900    4.5600   20.7130 C.3       1 FD3        -0.1161 
     11 C31        -4.0520    4.3820   22.2420 C.3       1 FD3         0.0713 
     12 C35        -2.7330    4.7590   22.8850 C.2       1 FD3         0.4944 
     13 O36        -2.7060    5.8960   23.3530 O.2       1 FD3        -0.5189 
     14 N81        -1.6530    3.9220   22.9120 N.am      1 FD3        -0.3386 
     15 C71        -1.5950    2.7340   22.0300 C.3       1 FD3         0.0314 
     16 C72        -1.1190    1.5670   22.9310 C.3       1 FD3         0.0243 
     17 C74         0.1300    3.3040   24.3760 C.3       1 FD3         0.0243 
     18 C75        -0.3720    4.4270   23.4370 C.3       1 FD3         0.0314 
     19 N40        -0.0250    1.9370   23.8060 N.3       1 FD3        -0.7449 
     20 N29        -5.1560    5.1010   22.8930 N.pl3     1 FD3        -0.5369 
     21 S12        -6.0160    4.3560   24.1820 S.o2      1 FD3         0.9199 
     22 O32        -7.0700    5.2380   24.6080 O.2       1 FD3        -0.4818 
     23 O33        -6.2660    2.9880   23.8750 O.2       1 FD3        -0.4818 
     24 C2         -4.7590    4.4100   25.3600 C.ar      1 FD3        -0.2033 
     25 C3         -4.4710    5.6480   25.9580 C.ar      1 FD3        -0.0512 
     26 C4         -3.4430    5.7550   26.9290 C.ar      1 FD3        -0.1259 
     27 C9         -3.0190    3.3300   26.6770 C.ar      1 FD3        -0.0584 
     28 C10        -2.7100    4.5860   27.2970 C.ar      1 FD3         0.0011 
     29 C1         -4.0540    3.2590   25.7070 C.ar      1 FD3        -0.0076 
     30 C5         -1.6680    4.6280   28.2750 C.ar      1 FD3        -0.1279 
     31 C6         -0.9450    3.4410   28.6250 C.ar      1 FD3        -0.1043 
     32 C7         -1.2660    2.2110   28.0000 C.ar      1 FD3        -0.1286 
     33 C8         -2.2910    2.1500   27.0330 C.ar      1 FD3        -0.1031 
     34 H66        -4.8450    7.1852   20.3800 H         1 FD3         0.1510 
     35 H64        -1.4478    4.5830   19.8808 H         1 FD3         0.1314 
     36 H63        -0.0946    6.4951   19.0952 H         1 FD3         0.1361 
     37 H62        -1.1184    8.7584   18.9242 H         1 FD3         0.1284 
     38 H431       -1.9271   10.3470   18.8586 H         1 FD3         0.3508 
     39 H432       -3.4345   11.4913   19.0784 H         1 FD3         0.3508 
     40 HN54       -5.5344    8.7414   20.2237 H         1 FD3         0.3288 
     41 H341       -5.1413    4.7096   20.4259 H         1 FD3         0.0780 
     42 H342       -3.7166    3.6276   20.2646 H         1 FD3         0.0780 
     43 H31        -4.2009    3.3102   22.4397 H         1 FD3         0.1313 
     44 H711       -2.5941    2.5369   21.6142 H         1 FD3         0.0890 
     45 H712       -0.8867    2.9208   21.2094 H         1 FD3         0.0890 
     46 H721       -1.9528    1.2285   23.5636 H         1 FD3         0.0687 
     47 H722       -0.7753    0.7337   22.3006 H         1 FD3         0.0687 
     48 H741        1.1993    3.4528   24.5866 H         1 FD3         0.0687 
     49 H742       -0.4368    3.3332   25.3183 H         1 FD3         0.0687 
     50 H751        0.3218    4.6050   22.6021 H         1 FD3         0.0890 
     51 H752       -0.5434    5.3690   23.9784 H         1 FD3         0.0890 
     52 HN29       -5.3248    6.1654   22.6727 H         1 FD3         0.2866 
     53 H3         -5.0340    6.5264   25.6791 H         1 FD3         0.1579 
     54 H4         -3.2233    6.7116   27.3797 H         1 FD3         0.1414 
     55 H1         -4.2952    2.3162   25.2386 H         1 FD3         0.1389 
     56 H5         -1.4185    5.5609   28.7585 H         1 FD3         0.1385 
     57 H6         -0.1581    3.4860   29.3633 H         1 FD3         0.1362 
     58 H7         -0.7249    1.3141   28.2633 H         1 FD3         0.1366 
     59 H8         -2.5257    1.2076   26.5605 H         1 FD3         0.1360 
     60 HN54       -5.4333   10.6037   19.8344 H         1 FD3         0.0000 
     61 HN40       -0.0474    1.3071   24.7075 H         1 FD3         0.0000 
@<TRIPOS>BOND
     1    1    2 ar   
     2    1    3 ar   
     3    1   10 1    
     4    2    6 ar   
     5    2   34 1    
     6    3    4 ar   
     7    3   35 1    
     8    4    5 ar   
     9    4   36 1    
    10    5    6 ar   
    11    5   37 1    
    12    6    7 1    
    13    7    8 ar   
    14    7    9 ar   
    15    8   38 1    
    16    8   39 1    
    17    9   40 1    
    18    9   60 1    
    19   10   11 1    
    20   10   41 1    
    21   10   42 1    
    22   11   12 1    
    23   11   20 1    
    24   11   43 1    
    25   12   13 2    
    26   12   14 am   BACKBONE|DICT|INTERRES
    27   14   15 1    
    28   14   18 1    
    29   15   16 1    
    30   15   44 1    
    31   15   45 1    
    32   16   19 1    
    33   16   46 1    
    34   16   47 1    
    35   17   18 1    
    36   17   19 1    
    37   17   48 1    
    38   17   49 1    
    39   18   50 1    
    40   18   51 1    
    41   19   61 1    
    42   20   21 1    
    43   20   52 1    
    44   21   22 2    
    45   21   23 2    
    46   21   24 1    
    47   24   25 ar   
    48   24   29 ar   
    49   25   26 ar   
    50   25   53 1    
    51   26   28 ar   
    52   26   54 1    
    53   27   28 ar   
    54   27   29 ar   
    55   27   33 ar   
    56   28   30 ar   
    57   29   55 1    
    58   30   31 ar   
    59   30   56 1    
    60   31   32 ar   
    61   31   57 1    
    62   32   33 ar   
    63   32   58 1    
    64   33   59 1    
@<TRIPOS>SUBSTRUCTURE
     1 FD3         1 GROUP             0 A     ****    0 ROOT    
@<TRIPOS>MOLECULE
1D
61   64    1
SMALL
USER_CHARGES


@<TRIPOS>ATOM
      1 C65        -3.2450    5.7480   20.2080 C.ar      1 FD3        -0.0947 
      2 C66        -3.8130    7.0280   20.1030 C.ar      1 FD3        -0.0631 
      3 C64        -1.8960    5.5640   19.8250 C.ar      1 FD3        -0.0993 
      4 C63        -1.1280    6.6450   19.3710 C.ar      1 FD3        -0.1329 
      5 C62        -1.7070    7.9240   19.2760 C.ar      1 FD3        -0.1033 
      6 C61        -3.0560    8.1170   19.6400 C.ar      1 FD3        -0.0286 
      7 C25        -3.6940    9.4740   19.5440 C.cat     1 FD3         0.5129 
      8 N43        -2.9810   10.4910   19.1390 N.pl3     1 FD3        -0.8455 
      9 N54        -4.9560    9.6140   19.8860 N.pl3     1 FD3        -0.7625 
     10 C34        -4.0900    4.5600   20.7130 C.3       1 FD3        -0.1161 
     11 C31        -4.0520    4.3820   22.2420 C.3       1 FD3         0.0713 
     12 C35        -2.7330    4.7590   22.8850 C.2       1 FD3         0.4944 
     13 O36        -2.7060    5.8960   23.3530 O.2       1 FD3        -0.5189 
     14 N81        -1.6530    3.9220   22.9120 N.am      1 FD3        -0.3386 
     15 C71        -1.5950    2.7340   22.0300 C.3       1 FD3         0.0314 
     16 C72        -1.1190    1.5670   22.9310 C.3       1 FD3         0.0243 
     17 C74         0.1300    3.3040   24.3760 C.3       1 FD3         0.0243 
     18 C75        -0.3720    4.4270   23.4370 C.3       1 FD3         0.0314 
     19 N40        -0.0250    1.9370   23.8060 N.4       1 FD3        -0.7449 
     20 N29        -5.1560    5.1010   22.8930 N.2       1 FD3        -0.5369 
     21 S12        -6.0160    4.3560   24.1820 S.o2      1 FD3         0.9199 
     22 O32        -7.0700    5.2380   24.6080 O.2       1 FD3        -0.4818 
     23 O33        -6.2660    2.9880   23.8750 O.2       1 FD3        -0.4818 
     24 C2         -4.7590    4.4100   25.3600 C.ar      1 FD3        -0.2033 
     25 C3         -4.4710    5.6480   25.9580 C.ar      1 FD3        -0.0512 
     26 C4         -3.4430    5.7550   26.9290 C.ar      1 FD3        -0.1259 
     27 C9         -3.0190    3.3300   26.6770 C.ar      1 FD3        -0.0584 
     28 C10        -2.7100    4.5860   27.2970 C.ar      1 FD3         0.0011 
     29 C1         -4.0540    3.2590   25.7070 C.ar      1 FD3        -0.0076 
     30 C5         -1.6680    4.6280   28.2750 C.ar      1 FD3        -0.1279 
     31 C6         -0.9450    3.4410   28.6250 C.ar      1 FD3        -0.1043 
     32 C7         -1.2660    2.2110   28.0000 C.ar      1 FD3        -0.1286 
     33 C8         -2.2910    2.1500   27.0330 C.ar      1 FD3        -0.1031 
     34 H66        -4.8450    7.1852   20.3800 H         1 FD3         0.1510 
     35 H64        -1.4478    4.5830   19.8808 H         1 FD3         0.1314 
     36 H63        -0.0946    6.4951   19.0952 H         1 FD3         0.1361 
     37 H62        -1.1184    8.7584   18.9242 H         1 FD3         0.1284 
     38 H431       -1.9271   10.3470   18.8586 H         1 FD3         0.3508 
     39 H432       -3.4345   11.4913   19.0784 H         1 FD3         0.3508 
     40 HN54       -5.5344    8.7414   20.2237 H         1 FD3         0.3288 
     41 H341       -5.1413    4.7096   20.4259 H         1 FD3         0.0780 
     42 H342       -3.7166    3.6276   20.2646 H         1 FD3         0.0780 
     43 H31        -4.2009    3.3102   22.4397 H         1 FD3         0.1313 
     44 H711       -2.5941    2.5369   21.6142 H         1 FD3         0.0890 
     45 H712       -0.8867    2.9208   21.2094 H         1 FD3         0.0890 
     46 H721       -1.9528    1.2285   23.5636 H         1 FD3         0.0687 
     47 H722       -0.7753    0.7337   22.3006 H         1 FD3         0.0687 
     48 H741        1.1993    3.4528   24.5866 H         1 FD3         0.0687 
     49 H742       -0.4368    3.3332   25.3183 H         1 FD3         0.0687 
     50 H751        0.3218    4.6050   22.6021 H         1 FD3         0.0890 
     51 H752       -0.5434    5.3690   23.9784 H         1 FD3         0.0890 
     52 HN40       -0.0474    1.3071   24.7075 H         1 FD3         0.3806 
     53 H3         -5.0340    6.5264   25.6791 H         1 FD3         0.1579 
     54 H4         -3.2233    6.7116   27.3797 H         1 FD3         0.1414 
     55 H1         -4.2952    2.3162   25.2386 H         1 FD3         0.1389 
     56 H5         -1.4185    5.5609   28.7585 H         1 FD3         0.1385 
     57 H6         -0.1581    3.4860   29.3633 H         1 FD3         0.1362 
     58 H7         -0.7249    1.3141   28.2633 H         1 FD3         0.1366 
     59 H8         -2.5257    1.2076   26.5605 H         1 FD3         0.1360 
     60 HN54       -5.4333   10.6037   19.8344 H         1 FD3         0.0000 
     61 HN40        0.9303    1.7912   23.2805 H         1 FD3         0.0000 
@<TRIPOS>BOND
     1    1    2 ar   
     2    1    3 ar   
     3    1   10 1    
     4    2    6 ar   
     5    2   34 1    
     6    3    4 ar   
     7    3   35 1    
     8    4    5 ar   
     9    4   36 1    
    10    5    6 ar   
    11    5   37 1    
    12    6    7 1    
    13    7    8 ar   
    14    7    9 ar   
    15    8   38 1    
    16    8   39 1    
    17    9   40 1    
    18    9   60 1    
    19   10   11 1    
    20   10   41 1    
    21   10   42 1    
    22   11   12 1    
    23   11   20 1    
    24   11   43 1    
    25   12   13 2    
    26   12   14 am   BACKBONE|DICT|INTERRES
    27   14   15 1    
    28   14   18 1    
    29   15   16 1    
    30   15   44 1    
    31   15   45 1    
    32   16   19 1    
    33   16   46 1    
    34   16   47 1    
    35   17   18 1    
    36   17   19 1    
    37   17   48 1    
    38   17   49 1    
    39   18   50 1    
    40   18   51 1    
    41   19   52 1    
    42   19   61 1    
    43   20   21 1    
    44   21   22 2    
    45   21   23 2    
    46   21   24 1    
    47   24   25 ar   
    48   24   29 ar   
    49   25   26 ar   
    50   25   53 1    
    51   26   28 ar   
    52   26   54 1    
    53   27   28 ar   
    54   27   29 ar   
    55   27   33 ar   
    56   28   30 ar   
    57   29   55 1    
    58   30   31 ar   
    59   30   56 1    
    60   31   32 ar   
    61   31   57 1    
    62   32   33 ar   
    63   32   58 1    
    64   33   59 1    
@<TRIPOS>SUBSTRUCTURE
     1 FD3         1 GROUP             0 A     ****    0 ROOT    
@<TRIPOS>MOLECULE
1D
60   63    1
SMALL
USER_CHARGES


@<TRIPOS>ATOM
      1 C65        -3.2450    5.7480   20.2080 C.ar      1 FD3        -0.0947 
      2 C66        -3.8130    7.0280   20.1030 C.ar      1 FD3        -0.0631 
      3 C64        -1.8960    5.5640   19.8250 C.ar      1 FD3        -0.0993 
      4 C63        -1.1280    6.6450   19.3710 C.ar      1 FD3        -0.1329 
      5 C62        -1.7070    7.9240   19.2760 C.ar      1 FD3        -0.1033 
      6 C61        -3.0560    8.1170   19.6400 C.ar      1 FD3        -0.0286 
      7 C25        -3.6940    9.4740   19.5440 C.cat     1 FD3         0.5129 
      8 N43        -2.9810   10.4910   19.1390 N.pl3     1 FD3        -0.8455 
      9 N54        -4.9560    9.6140   19.8860 N.pl3     1 FD3        -0.7625 
     10 C34        -4.0900    4.5600   20.7130 C.3       1 FD3        -0.1161 
     11 C31        -4.0520    4.3820   22.2420 C.3       1 FD3         0.0713 
     12 C35        -2.7330    4.7590   22.8850 C.2       1 FD3         0.4944 
     13 O36        -2.7060    5.8960   23.3530 O.2       1 FD3        -0.5189 
     14 N81        -1.6530    3.9220   22.9120 N.am      1 FD3        -0.3386 
     15 C71        -1.5950    2.7340   22.0300 C.3       1 FD3         0.0314 
     16 C72        -1.1190    1.5670   22.9310 C.3       1 FD3         0.0243 
     17 C74         0.1300    3.3040   24.3760 C.3       1 FD3         0.0243 
     18 C75        -0.3720    4.4270   23.4370 C.3       1 FD3         0.0314 
     19 N40        -0.0250    1.9370   23.8060 N.3       1 FD3        -0.7449 
     20 N29        -5.1560    5.1010   22.8930 N.2       1 FD3        -0.5369 
     21 S12        -6.0160    4.3560   24.1820 S.o2      1 FD3         0.9199 
     22 O32        -7.0700    5.2380   24.6080 O.2       1 FD3        -0.4818 
     23 O33        -6.2660    2.9880   23.8750 O.2       1 FD3        -0.4818 
     24 C2         -4.7590    4.4100   25.3600 C.ar      1 FD3        -0.2033 
     25 C3         -4.4710    5.6480   25.9580 C.ar      1 FD3        -0.0512 
     26 C4         -3.4430    5.7550   26.9290 C.ar      1 FD3        -0.1259 
     27 C9         -3.0190    3.3300   26.6770 C.ar      1 FD3        -0.0584 
     28 C10        -2.7100    4.5860   27.2970 C.ar      1 FD3         0.0011 
     29 C1         -4.0540    3.2590   25.7070 C.ar      1 FD3        -0.0076 
     30 C5         -1.6680    4.6280   28.2750 C.ar      1 FD3        -0.1279 
     31 C6         -0.9450    3.4410   28.6250 C.ar      1 FD3        -0.1043 
     32 C7         -1.2660    2.2110   28.0000 C.ar      1 FD3        -0.1286 
     33 C8         -2.2910    2.1500   27.0330 C.ar      1 FD3        -0.1031 
     34 H66        -4.8450    7.1852   20.3800 H         1 FD3         0.1510 
     35 H64        -1.4478    4.5830   19.8808 H         1 FD3         0.1314 
     36 H63        -0.0946    6.4951   19.0952 H         1 FD3         0.1361 
     37 H62        -1.1184    8.7584   18.9242 H         1 FD3         0.1284 
     38 H431       -1.9271   10.3470   18.8586 H         1 FD3         0.3508 
     39 H432       -3.4345   11.4913   19.0784 H         1 FD3         0.3508 
     40 HN54       -5.5344    8.7414   20.2237 H         1 FD3         0.3288 
     41 H341       -5.1413    4.7096   20.4259 H         1 FD3         0.0780 
     42 H342       -3.7166    3.6276   20.2646 H         1 FD3         0.0780 
     43 H31        -4.2009    3.3102   22.4397 H         1 FD3         0.1313 
     44 H711       -2.5941    2.5369   21.6142 H         1 FD3         0.0890 
     45 H712       -0.8867    2.9208   21.2094 H         1 FD3         0.0890 
     46 H721       -1.9528    1.2285   23.5636 H         1 FD3         0.0687 
     47 H722       -0.7753    0.7337   22.3006 H         1 FD3         0.0687 
     48 H741        1.1993    3.4528   24.5866 H         1 FD3         0.0687 
     49 H742       -0.4368    3.3332   25.3183 H         1 FD3         0.0687 
     50 H751        0.3218    4.6050   22.6021 H         1 FD3         0.0890 
     51 H752       -0.5434    5.3690   23.9784 H         1 FD3         0.0890 
     52 H3         -5.0340    6.5264   25.6791 H         1 FD3         0.1579 
     53 H4         -3.2233    6.7116   27.3797 H         1 FD3         0.1414 
     54 H1         -4.2952    2.3162   25.2386 H         1 FD3         0.1389 
     55 H5         -1.4185    5.5609   28.7585 H         1 FD3         0.1385 
     56 H6         -0.1581    3.4860   29.3633 H         1 FD3         0.1362 
     57 H7         -0.7249    1.3141   28.2633 H         1 FD3         0.1366 
     58 H8         -2.5257    1.2076   26.5605 H         1 FD3         0.1360 
     59 HN54       -5.4333   10.6037   19.8344 H         1 FD3         0.0000 
     60 HN40       -0.0474    1.3071   24.7075 H         1 FD3         0.0000 
@<TRIPOS>BOND
     1    1    2 ar   
     2    1    3 ar   
     3    1   10 1    
     4    2    6 ar   
     5    2   34 1    
     6    3    4 ar   
     7    3   35 1    
     8    4    5 ar   
     9    4   36 1    
    10    5    6 ar   
    11    5   37 1    
    12    6    7 1    
    13    7    8 ar   
    14    7    9 ar   
    15    8   38 1    
    16    8   39 1    
    17    9   40 1    
    18    9   59 1    
    19   10   11 1    
    20   10   41 1    
    21   10   42 1    
    22   11   12 1    
    23   11   20 1    
    24   11   43 1    
    25   12   13 2    
    26   12   14 am   BACKBONE|DICT|INTERRES
    27   14   15 1    
    28   14   18 1    
    29   15   16 1    
    30   15   44 1    
    31   15   45 1    
    32   16   19 1    
    33   16   46 1    
    34   16   47 1    
    35   17   18 1    
    36   17   19 1    
    37   17   48 1    
    38   17   49 1    
    39   18   50 1    
    40   18   51 1    
    41   19   60 1    
    42   20   21 1    
    43   21   22 2    
    44   21   23 2    
    45   21   24 1    
    46   24   25 ar   
    47   24   29 ar   
    48   25   26 ar   
    49   25   52 1    
    50   26   28 ar   
    51   26   53 1    
    52   27   28 ar   
    53   27   29 ar   
    54   27   33 ar   
    55   28   30 ar   
    56   29   54 1    
    57   30   31 ar   
    58   30   55 1    
    59   31   32 ar   
    60   31   56 1    
    61   32   33 ar   
    62   32   57 1    
    63   33   58 1    
@<TRIPOS>SUBSTRUCTURE
     1 FD3         1 GROUP             0 A     ****    0 ROOT    
@<TRIPOS>MOLECULE
1D
61   64    1
SMALL
USER_CHARGES


@<TRIPOS>ATOM
      1 C65        -3.2450    5.7480   20.2080 C.ar      1 FD3        -0.0947 
      2 C66        -3.8130    7.0280   20.1030 C.ar      1 FD3        -0.0631 
      3 C64        -1.8960    5.5640   19.8250 C.ar      1 FD3        -0.0993 
      4 C63        -1.1280    6.6450   19.3710 C.ar      1 FD3        -0.1329 
      5 C62        -1.7070    7.9240   19.2760 C.ar      1 FD3        -0.1033 
      6 C61        -3.0560    8.1170   19.6400 C.ar      1 FD3        -0.0286 
      7 C25        -3.6940    9.4740   19.5440 C.2       1 FD3         0.5129 
      8 N43        -2.9810   10.4910   19.1390 N.2       1 FD3        -0.8455 
      9 N54        -4.9560    9.6140   19.8860 N.pl3     1 FD3        -0.7625 
     10 C34        -4.0900    4.5600   20.7130 C.3       1 FD3        -0.1161 
     11 C31        -4.0520    4.3820   22.2420 C.3       1 FD3         0.0713 
     12 C35        -2.7330    4.7590   22.8850 C.2       1 FD3         0.4944 
     13 O36        -2.7060    5.8960   23.3530 O.2       1 FD3        -0.5189 
     14 N81        -1.6530    3.9220   22.9120 N.am      1 FD3        -0.3386 
     15 C71        -1.5950    2.7340   22.0300 C.3       1 FD3         0.0314 
     16 C72        -1.1190    1.5670   22.9310 C.3       1 FD3         0.0243 
     17 C74         0.1300    3.3040   24.3760 C.3       1 FD3         0.0243 
     18 C75        -0.3720    4.4270   23.4370 C.3       1 FD3         0.0314 
     19 N40        -0.0250    1.9370   23.8060 N.4       1 FD3        -0.7449 
     20 N29        -5.1560    5.1010   22.8930 N.pl3     1 FD3        -0.5369 
     21 S12        -6.0160    4.3560   24.1820 S.o2      1 FD3         0.9199 
     22 O32        -7.0700    5.2380   24.6080 O.2       1 FD3        -0.4818 
     23 O33        -6.2660    2.9880   23.8750 O.2       1 FD3        -0.4818 
     24 C2         -4.7590    4.4100   25.3600 C.ar      1 FD3        -0.2033 
     25 C3         -4.4710    5.6480   25.9580 C.ar      1 FD3        -0.0512 
     26 C4         -3.4430    5.7550   26.9290 C.ar      1 FD3        -0.1259 
     27 C9         -3.0190    3.3300   26.6770 C.ar      1 FD3        -0.0584 
     28 C10        -2.7100    4.5860   27.2970 C.ar      1 FD3         0.0011 
     29 C1         -4.0540    3.2590   25.7070 C.ar      1 FD3        -0.0076 
     30 C5         -1.6680    4.6280   28.2750 C.ar      1 FD3        -0.1279 
     31 C6         -0.9450    3.4410   28.6250 C.ar      1 FD3        -0.1043 
     32 C7         -1.2660    2.2110   28.0000 C.ar      1 FD3        -0.1286 
     33 C8         -2.2910    2.1500   27.0330 C.ar      1 FD3        -0.1031 
     34 H66        -4.8450    7.1852   20.3800 H         1 FD3         0.1510 
     35 H64        -1.4478    4.5830   19.8808 H         1 FD3         0.1314 
     36 H63        -0.0946    6.4951   19.0952 H         1 FD3         0.1361 
     37 H62        -1.1184    8.7584   18.9242 H         1 FD3         0.1284 
     38 H432       -1.9271   10.3470   18.8586 H         1 FD3         0.3508 
     39 HN54       -5.5344    8.7414   20.2237 H         1 FD3         0.3288 
     40 H341       -5.1413    4.7096   20.4259 H         1 FD3         0.0780 
     41 H342       -3.7166    3.6276   20.2646 H         1 FD3         0.0780 
     42 H31        -4.2009    3.3102   22.4397 H         1 FD3         0.1313 
     43 H711       -2.5941    2.5369   21.6142 H         1 FD3         0.0890 
     44 H712       -0.8867    2.9208   21.2094 H         1 FD3         0.0890 
     45 H721       -1.9528    1.2285   23.5636 H         1 FD3         0.0687 
     46 H722       -0.7753    0.7337   22.3006 H         1 FD3         0.0687 
     47 H741        1.1993    3.4528   24.5866 H         1 FD3         0.0687 
     48 H742       -0.4368    3.3332   25.3183 H         1 FD3         0.0687 
     49 H751        0.3218    4.6050   22.6021 H         1 FD3         0.0890 
     50 H752       -0.5434    5.3690   23.9784 H         1 FD3         0.0890 
     51 HN40       -0.0474    1.3071   24.7075 H         1 FD3         0.3806 
     52 HN29       -5.3248    6.1654   22.6727 H         1 FD3         0.2866 
     53 H3         -5.0340    6.5264   25.6791 H         1 FD3         0.1579 
     54 H4         -3.2233    6.7116   27.3797 H         1 FD3         0.1414 
     55 H1         -4.2952    2.3162   25.2386 H         1 FD3         0.1389 
     56 H5         -1.4185    5.5609   28.7585 H         1 FD3         0.1385 
     57 H6         -0.1581    3.4860   29.3633 H         1 FD3         0.1362 
     58 H7         -0.7249    1.3141   28.2633 H         1 FD3         0.1366 
     59 H8         -2.5257    1.2076   26.5605 H         1 FD3         0.1360 
     60 HN54       -5.4333   10.6037   19.8344 H         1 FD3         0.0000 
     61 HN40        0.9303    1.7912   23.2805 H         1 FD3         0.0000 
@<TRIPOS>BOND
     1    1    2 ar   
     2    1    3 ar   
     3    1   10 1    
     4    2    6 ar   
     5    2   34 1    
     6    3    4 ar   
     7    3   35 1    
     8    4    5 ar   
     9    4   36 1    
    10    5    6 ar   
    11    5   37 1    
    12    6    7 1    
    13    7    8 2    
    14    7    9 1    
    15    8   38 1    
    16    9   39 1    
    17    9   60 1    
    18   10   11 1    
    19   10   40 1    
    20   10   41 1    
    21   11   12 1    
    22   11   20 1    
    23   11   42 1    
    24   12   13 2    
    25   12   14 am   BACKBONE|DICT|INTERRES
    26   14   15 1    
    27   14   18 1    
    28   15   16 1    
    29   15   43 1    
    30   15   44 1    
    31   16   19 1    
    32   16   45 1    
    33   16   46 1    
    34   17   18 1    
    35   17   19 1    
    36   17   47 1    
    37   17   48 1    
    38   18   49 1    
    39   18   50 1    
    40   19   51 1    
    41   19   61 1    
    42   20   21 1    
    43   20   52 1    
    44   21   22 2    
    45   21   23 2    
    46   21   24 1    
    47   24   25 ar   
    48   24   29 ar   
    49   25   26 ar   
    50   25   53 1    
    51   26   28 ar   
    52   26   54 1    
    53   27   28 ar   
    54   27   29 ar   
    55   27   33 ar   
    56   28   30 ar   
    57   29   55 1    
    58   30   31 ar   
    59   30   56 1    
    60   31   32 ar   
    61   31   57 1    
    62   32   33 ar   
    63   32   58 1    
    64   33   59 1    
@<TRIPOS>SUBSTRUCTURE
     1 FD3         1 GROUP             0 A     ****    0 ROOT    
@<TRIPOS>MOLECULE
1D
61   64    1
SMALL
USER_CHARGES


@<TRIPOS>ATOM
      1 C65        -3.2450    5.7480   20.2080 C.ar      1 FD3        -0.0947 
      2 C66        -3.8130    7.0280   20.1030 C.ar      1 FD3        -0.0631 
      3 C64        -1.8960    5.5640   19.8250 C.ar      1 FD3        -0.0993 
      4 C63        -1.1280    6.6450   19.3710 C.ar      1 FD3        -0.1329 
      5 C62        -1.7070    7.9240   19.2760 C.ar      1 FD3        -0.1033 
      6 C61        -3.0560    8.1170   19.6400 C.ar      1 FD3        -0.0286 
      7 C25        -3.6940    9.4740   19.5440 C.2       1 FD3         0.5129 
      8 N43        -2.9810   10.4910   19.1390 N.2       1 FD3        -0.8455 
      9 N54        -4.9560    9.6140   19.8860 N.pl3     1 FD3        -0.7625 
     10 C34        -4.0900    4.5600   20.7130 C.3       1 FD3        -0.1161 
     11 C31        -4.0520    4.3820   22.2420 C.3       1 FD3         0.0713 
     12 C35        -2.7330    4.7590   22.8850 C.2       1 FD3         0.4944 
     13 O36        -2.7060    5.8960   23.3530 O.2       1 FD3        -0.5189 
     14 N81        -1.6530    3.9220   22.9120 N.am      1 FD3        -0.3386 
     15 C71        -1.5950    2.7340   22.0300 C.3       1 FD3         0.0314 
     16 C72        -1.1190    1.5670   22.9310 C.3       1 FD3         0.0243 
     17 C74         0.1300    3.3040   24.3760 C.3       1 FD3         0.0243 
     18 C75        -0.3720    4.4270   23.4370 C.3       1 FD3         0.0314 
     19 N40        -0.0250    1.9370   23.8060 N.4       1 FD3        -0.7449 
     20 N29        -5.1560    5.1010   22.8930 N.pl3     1 FD3        -0.5369 
     21 S12        -6.0160    4.3560   24.1820 S.o2      1 FD3         0.9199 
     22 O32        -7.0700    5.2380   24.6080 O.2       1 FD3        -0.4818 
     23 O33        -6.2660    2.9880   23.8750 O.2       1 FD3        -0.4818 
     24 C2         -4.7590    4.4100   25.3600 C.ar      1 FD3        -0.2033 
     25 C3         -4.4710    5.6480   25.9580 C.ar      1 FD3        -0.0512 
     26 C4         -3.4430    5.7550   26.9290 C.ar      1 FD3        -0.1259 
     27 C9         -3.0190    3.3300   26.6770 C.ar      1 FD3        -0.0584 
     28 C10        -2.7100    4.5860   27.2970 C.ar      1 FD3         0.0011 
     29 C1         -4.0540    3.2590   25.7070 C.ar      1 FD3        -0.0076 
     30 C5         -1.6680    4.6280   28.2750 C.ar      1 FD3        -0.1279 
     31 C6         -0.9450    3.4410   28.6250 C.ar      1 FD3        -0.1043 
     32 C7         -1.2660    2.2110   28.0000 C.ar      1 FD3        -0.1286 
     33 C8         -2.2910    2.1500   27.0330 C.ar      1 FD3        -0.1031 
     34 H66        -4.8450    7.1852   20.3800 H         1 FD3         0.1510 
     35 H64        -1.4478    4.5830   19.8808 H         1 FD3         0.1314 
     36 H63        -0.0946    6.4951   19.0952 H         1 FD3         0.1361 
     37 H62        -1.1184    8.7584   18.9242 H         1 FD3         0.1284 
     38 H431       -3.4345   11.4913   19.0784 H         1 FD3         0.3508 
     39 HN54       -5.5344    8.7414   20.2237 H         1 FD3         0.3288 
     40 H341       -5.1413    4.7096   20.4259 H         1 FD3         0.0780 
     41 H342       -3.7166    3.6276   20.2646 H         1 FD3         0.0780 
     42 H31        -4.2009    3.3102   22.4397 H         1 FD3         0.1313 
     43 H711       -2.5941    2.5369   21.6142 H         1 FD3         0.0890 
     44 H712       -0.8867    2.9208   21.2094 H         1 FD3         0.0890 
     45 H721       -1.9528    1.2285   23.5636 H         1 FD3         0.0687 
     46 H722       -0.7753    0.7337   22.3006 H         1 FD3         0.0687 
     47 H741        1.1993    3.4528   24.5866 H         1 FD3         0.0687 
     48 H742       -0.4368    3.3332   25.3183 H         1 FD3         0.0687 
     49 H751        0.3218    4.6050   22.6021 H         1 FD3         0.0890 
     50 H752       -0.5434    5.3690   23.9784 H         1 FD3         0.0890 
     51 HN40       -0.0474    1.3071   24.7075 H         1 FD3         0.3806 
     52 HN29       -5.3248    6.1654   22.6727 H         1 FD3         0.2866 
     53 H3         -5.0340    6.5264   25.6791 H         1 FD3         0.1579 
     54 H4         -3.2233    6.7116   27.3797 H         1 FD3         0.1414 
     55 H1         -4.2952    2.3162   25.2386 H         1 FD3         0.1389 
     56 H5         -1.4185    5.5609   28.7585 H         1 FD3         0.1385 
     57 H6         -0.1581    3.4860   29.3633 H         1 FD3         0.1362 
     58 H7         -0.7249    1.3141   28.2633 H         1 FD3         0.1366 
     59 H8         -2.5257    1.2076   26.5605 H         1 FD3         0.1360 
     60 HN54       -5.4333   10.6037   19.8344 H         1 FD3         0.0000 
     61 HN40        0.9303    1.7912   23.2805 H         1 FD3         0.0000 
@<TRIPOS>BOND
     1    1    2 ar   
     2    1    3 ar   
     3    1   10 1    
     4    2    6 ar   
     5    2   34 1    
     6    3    4 ar   
     7    3   35 1    
     8    4    5 ar   
     9    4   36 1    
    10    5    6 ar   
    11    5   37 1    
    12    6    7 1    
    13    7    8 2    
    14    7    9 1    
    15    8   38 1    
    16    9   39 1    
    17    9   60 1    
    18   10   11 1    
    19   10   40 1    
    20   10   41 1    
    21   11   12 1    
    22   11   20 1    
    23   11   42 1    
    24   12   13 2    
    25   12   14 am   BACKBONE|DICT|INTERRES
    26   14   15 1    
    27   14   18 1    
    28   15   16 1    
    29   15   43 1    
    30   15   44 1    
    31   16   19 1    
    32   16   45 1    
    33   16   46 1    
    34   17   18 1    
    35   17   19 1    
    36   17   47 1    
    37   17   48 1    
    38   18   49 1    
    39   18   50 1    
    40   19   51 1    
    41   19   61 1    
    42   20   21 1    
    43   20   52 1    
    44   21   22 2    
    45   21   23 2    
    46   21   24 1    
    47   24   25 ar   
    48   24   29 ar   
    49   25   26 ar   
    50   25   53 1    
    51   26   28 ar   
    52   26   54 1    
    53   27   28 ar   
    54   27   29 ar   
    55   27   33 ar   
    56   28   30 ar   
    57   29   55 1    
    58   30   31 ar   
    59   30   56 1    
    60   31   32 ar   
    61   31   57 1    
    62   32   33 ar   
    63   32   58 1    
    64   33   59 1    
@<TRIPOS>SUBSTRUCTURE
     1 FD3         1 GROUP             0 A     ****    0 ROOT    
@<TRIPOS>MOLECULE
1D
60   63    1
SMALL
USER_CHARGES


@<TRIPOS>ATOM
      1 C65        -3.2450    5.7480   20.2080 C.ar      1 FD3        -0.0947 
      2 C66        -3.8130    7.0280   20.1030 C.ar      1 FD3        -0.0631 
      3 C64        -1.8960    5.5640   19.8250 C.ar      1 FD3        -0.0993 
      4 C63        -1.1280    6.6450   19.3710 C.ar      1 FD3        -0.1329 
      5 C62        -1.7070    7.9240   19.2760 C.ar      1 FD3        -0.1033 
      6 C61        -3.0560    8.1170   19.6400 C.ar      1 FD3        -0.0286 
      7 C25        -3.6940    9.4740   19.5440 C.2       1 FD3         0.5129 
      8 N43        -2.9810   10.4910   19.1390 N.2       1 FD3        -0.8455 
      9 N54        -4.9560    9.6140   19.8860 N.pl3     1 FD3        -0.7625 
     10 C34        -4.0900    4.5600   20.7130 C.3       1 FD3        -0.1161 
     11 C31        -4.0520    4.3820   22.2420 C.3       1 FD3         0.0713 
     12 C35        -2.7330    4.7590   22.8850 C.2       1 FD3         0.4944 
     13 O36        -2.7060    5.8960   23.3530 O.2       1 FD3        -0.5189 
     14 N81        -1.6530    3.9220   22.9120 N.am      1 FD3        -0.3386 
     15 C71        -1.5950    2.7340   22.0300 C.3       1 FD3         0.0314 
     16 C72        -1.1190    1.5670   22.9310 C.3       1 FD3         0.0243 
     17 C74         0.1300    3.3040   24.3760 C.3       1 FD3         0.0243 
     18 C75        -0.3720    4.4270   23.4370 C.3       1 FD3         0.0314 
     19 N40        -0.0250    1.9370   23.8060 N.3       1 FD3        -0.7449 
     20 N29        -5.1560    5.1010   22.8930 N.pl3     1 FD3        -0.5369 
     21 S12        -6.0160    4.3560   24.1820 S.o2      1 FD3         0.9199 
     22 O32        -7.0700    5.2380   24.6080 O.2       1 FD3        -0.4818 
     23 O33        -6.2660    2.9880   23.8750 O.2       1 FD3        -0.4818 
     24 C2         -4.7590    4.4100   25.3600 C.ar      1 FD3        -0.2033 
     25 C3         -4.4710    5.6480   25.9580 C.ar      1 FD3        -0.0512 
     26 C4         -3.4430    5.7550   26.9290 C.ar      1 FD3        -0.1259 
     27 C9         -3.0190    3.3300   26.6770 C.ar      1 FD3        -0.0584 
     28 C10        -2.7100    4.5860   27.2970 C.ar      1 FD3         0.0011 
     29 C1         -4.0540    3.2590   25.7070 C.ar      1 FD3        -0.0076 
     30 C5         -1.6680    4.6280   28.2750 C.ar      1 FD3        -0.1279 
     31 C6         -0.9450    3.4410   28.6250 C.ar      1 FD3        -0.1043 
     32 C7         -1.2660    2.2110   28.0000 C.ar      1 FD3        -0.1286 
     33 C8         -2.2910    2.1500   27.0330 C.ar      1 FD3        -0.1031 
     34 H66        -4.8450    7.1852   20.3800 H         1 FD3         0.1510 
     35 H64        -1.4478    4.5830   19.8808 H         1 FD3         0.1314 
     36 H63        -0.0946    6.4951   19.0952 H         1 FD3         0.1361 
     37 H62        -1.1184    8.7584   18.9242 H         1 FD3         0.1284 
     38 H432       -1.9271   10.3470   18.8586 H         1 FD3         0.3508 
     39 HN54       -5.5344    8.7414   20.2237 H         1 FD3         0.3288 
     40 H341       -5.1413    4.7096   20.4259 H         1 FD3         0.0780 
     41 H342       -3.7166    3.6276   20.2646 H         1 FD3         0.0780 
     42 H31        -4.2009    3.3102   22.4397 H         1 FD3         0.1313 
     43 H711       -2.5941    2.5369   21.6142 H         1 FD3         0.0890 
     44 H712       -0.8867    2.9208   21.2094 H         1 FD3         0.0890 
     45 H721       -1.9528    1.2285   23.5636 H         1 FD3         0.0687 
     46 H722       -0.7753    0.7337   22.3006 H         1 FD3         0.0687 
     47 H741        1.1993    3.4528   24.5866 H         1 FD3         0.0687 
     48 H742       -0.4368    3.3332   25.3183 H         1 FD3         0.0687 
     49 H751        0.3218    4.6050   22.6021 H         1 FD3         0.0890 
     50 H752       -0.5434    5.3690   23.9784 H         1 FD3         0.0890 
     51 HN29       -5.3248    6.1654   22.6727 H         1 FD3         0.2866 
     52 H3         -5.0340    6.5264   25.6791 H         1 FD3         0.1579 
     53 H4         -3.2233    6.7116   27.3797 H         1 FD3         0.1414 
     54 H1         -4.2952    2.3162   25.2386 H         1 FD3         0.1389 
     55 H5         -1.4185    5.5609   28.7585 H         1 FD3         0.1385 
     56 H6         -0.1581    3.4860   29.3633 H         1 FD3         0.1362 
     57 H7         -0.7249    1.3141   28.2633 H         1 FD3         0.1366 
     58 H8         -2.5257    1.2076   26.5605 H         1 FD3         0.1360 
     59 HN54       -5.4333   10.6037   19.8344 H         1 FD3         0.0000 
     60 HN40       -0.0474    1.3071   24.7075 H         1 FD3         0.0000 
@<TRIPOS>BOND
     1    1    2 ar   
     2    1    3 ar   
     3    1   10 1    
     4    2    6 ar   
     5    2   34 1    
     6    3    4 ar   
     7    3   35 1    
     8    4    5 ar   
     9    4   36 1    
    10    5    6 ar   
    11    5   37 1    
    12    6    7 1    
    13    7    8 2    
    14    7    9 1    
    15    8   38 1    
    16    9   39 1    
    17    9   59 1    
    18   10   11 1    
    19   10   40 1    
    20   10   41 1    
    21   11   12 1    
    22   11   20 1    
    23   11   42 1    
    24   12   13 2    
    25   12   14 am   BACKBONE|DICT|INTERRES
    26   14   15 1    
    27   14   18 1    
    28   15   16 1    
    29   15   43 1    
    30   15   44 1    
    31   16   19 1    
    32   16   45 1    
    33   16   46 1    
    34   17   18 1    
    35   17   19 1    
    36   17   47 1    
    37   17   48 1    
    38   18   49 1    
    39   18   50 1    
    40   19   60 1    
    41   20   21 1    
    42   20   51 1    
    43   21   22 2    
    44   21   23 2    
    45   21   24 1    
    46   24   25 ar   
    47   24   29 ar   
    48   25   26 ar   
    49   25   52 1    
    50   26   28 ar   
    51   26   53 1    
    52   27   28 ar   
    53   27   29 ar   
    54   27   33 ar   
    55   28   30 ar   
    56   29   54 1    
    57   30   31 ar   
    58   30   55 1    
    59   31   32 ar   
    60   31   56 1    
    61   32   33 ar   
    62   32   57 1    
    63   33   58 1    
@<TRIPOS>SUBSTRUCTURE
     1 FD3         1 GROUP             0 A     ****    0 ROOT    
@<TRIPOS>MOLECULE
1D
60   63    1
SMALL
USER_CHARGES


@<TRIPOS>ATOM
      1 C65        -3.2450    5.7480   20.2080 C.ar      1 FD3        -0.0947 
      2 C66        -3.8130    7.0280   20.1030 C.ar      1 FD3        -0.0631 
      3 C64        -1.8960    5.5640   19.8250 C.ar      1 FD3        -0.0993 
      4 C63        -1.1280    6.6450   19.3710 C.ar      1 FD3        -0.1329 
      5 C62        -1.7070    7.9240   19.2760 C.ar      1 FD3        -0.1033 
      6 C61        -3.0560    8.1170   19.6400 C.ar      1 FD3        -0.0286 
      7 C25        -3.6940    9.4740   19.5440 C.2       1 FD3         0.5129 
      8 N43        -2.9810   10.4910   19.1390 N.2       1 FD3        -0.8455 
      9 N54        -4.9560    9.6140   19.8860 N.pl3     1 FD3        -0.7625 
     10 C34        -4.0900    4.5600   20.7130 C.3       1 FD3        -0.1161 
     11 C31        -4.0520    4.3820   22.2420 C.3       1 FD3         0.0713 
     12 C35        -2.7330    4.7590   22.8850 C.2       1 FD3         0.4944 
     13 O36        -2.7060    5.8960   23.3530 O.2       1 FD3        -0.5189 
     14 N81        -1.6530    3.9220   22.9120 N.am      1 FD3        -0.3386 
     15 C71        -1.5950    2.7340   22.0300 C.3       1 FD3         0.0314 
     16 C72        -1.1190    1.5670   22.9310 C.3       1 FD3         0.0243 
     17 C74         0.1300    3.3040   24.3760 C.3       1 FD3         0.0243 
     18 C75        -0.3720    4.4270   23.4370 C.3       1 FD3         0.0314 
     19 N40        -0.0250    1.9370   23.8060 N.3       1 FD3        -0.7449 
     20 N29        -5.1560    5.1010   22.8930 N.pl3     1 FD3        -0.5369 
     21 S12        -6.0160    4.3560   24.1820 S.o2      1 FD3         0.9199 
     22 O32        -7.0700    5.2380   24.6080 O.2       1 FD3        -0.4818 
     23 O33        -6.2660    2.9880   23.8750 O.2       1 FD3        -0.4818 
     24 C2         -4.7590    4.4100   25.3600 C.ar      1 FD3        -0.2033 
     25 C3         -4.4710    5.6480   25.9580 C.ar      1 FD3        -0.0512 
     26 C4         -3.4430    5.7550   26.9290 C.ar      1 FD3        -0.1259 
     27 C9         -3.0190    3.3300   26.6770 C.ar      1 FD3        -0.0584 
     28 C10        -2.7100    4.5860   27.2970 C.ar      1 FD3         0.0011 
     29 C1         -4.0540    3.2590   25.7070 C.ar      1 FD3        -0.0076 
     30 C5         -1.6680    4.6280   28.2750 C.ar      1 FD3        -0.1279 
     31 C6         -0.9450    3.4410   28.6250 C.ar      1 FD3        -0.1043 
     32 C7         -1.2660    2.2110   28.0000 C.ar      1 FD3        -0.1286 
     33 C8         -2.2910    2.1500   27.0330 C.ar      1 FD3        -0.1031 
     34 H66        -4.8450    7.1852   20.3800 H         1 FD3         0.1510 
     35 H64        -1.4478    4.5830   19.8808 H         1 FD3         0.1314 
     36 H63        -0.0946    6.4951   19.0952 H         1 FD3         0.1361 
     37 H62        -1.1184    8.7584   18.9242 H         1 FD3         0.1284 
     38 H431       -3.4345   11.4913   19.0784 H         1 FD3         0.3508 
     39 HN54       -5.5344    8.7414   20.2237 H         1 FD3         0.3288 
     40 H341       -5.1413    4.7096   20.4259 H         1 FD3         0.0780 
     41 H342       -3.7166    3.6276   20.2646 H         1 FD3         0.0780 
     42 H31        -4.2009    3.3102   22.4397 H         1 FD3         0.1313 
     43 H711       -2.5941    2.5369   21.6142 H         1 FD3         0.0890 
     44 H712       -0.8867    2.9208   21.2094 H         1 FD3         0.0890 
     45 H721       -1.9528    1.2285   23.5636 H         1 FD3         0.0687 
     46 H722       -0.7753    0.7337   22.3006 H         1 FD3         0.0687 
     47 H741        1.1993    3.4528   24.5866 H         1 FD3         0.0687 
     48 H742       -0.4368    3.3332   25.3183 H         1 FD3         0.0687 
     49 H751        0.3218    4.6050   22.6021 H         1 FD3         0.0890 
     50 H752       -0.5434    5.3690   23.9784 H         1 FD3         0.0890 
     51 HN29       -5.3248    6.1654   22.6727 H         1 FD3         0.2866 
     52 H3         -5.0340    6.5264   25.6791 H         1 FD3         0.1579 
     53 H4         -3.2233    6.7116   27.3797 H         1 FD3         0.1414 
     54 H1         -4.2952    2.3162   25.2386 H         1 FD3         0.1389 
     55 H5         -1.4185    5.5609   28.7585 H         1 FD3         0.1385 
     56 H6         -0.1581    3.4860   29.3633 H         1 FD3         0.1362 
     57 H7         -0.7249    1.3141   28.2633 H         1 FD3         0.1366 
     58 H8         -2.5257    1.2076   26.5605 H         1 FD3         0.1360 
     59 HN54       -5.4333   10.6037   19.8344 H         1 FD3         0.0000 
     60 HN40       -0.0474    1.3071   24.7075 H         1 FD3         0.0000 
@<TRIPOS>BOND
     1    1    2 ar   
     2    1    3 ar   
     3    1   10 1    
     4    2    6 ar   
     5    2   34 1    
     6    3    4 ar   
     7    3   35 1    
     8    4    5 ar   
     9    4   36 1    
    10    5    6 ar   
    11    5   37 1    
    12    6    7 1    
    13    7    8 2    
    14    7    9 1    
    15    8   38 1    
    16    9   39 1    
    17    9   59 1    
    18   10   11 1    
    19   10   40 1    
    20   10   41 1    
    21   11   12 1    
    22   11   20 1    
    23   11   42 1    
    24   12   13 2    
    25   12   14 am   BACKBONE|DICT|INTERRES
    26   14   15 1    
    27   14   18 1    
    28   15   16 1    
    29   15   43 1    
    30   15   44 1    
    31   16   19 1    
    32   16   45 1    
    33   16   46 1    
    34   17   18 1    
    35   17   19 1    
    36   17   47 1    
    37   17   48 1    
    38   18   49 1    
    39   18   50 1    
    40   19   60 1    
    41   20   21 1    
    42   20   51 1    
    43   21   22 2    
    44   21   23 2    
    45   21   24 1    
    46   24   25 ar   
    47   24   29 ar   
    48   25   26 ar   
    49   25   52 1    
    50   26   28 ar   
    51   26   53 1    
    52   27   28 ar   
    53   27   29 ar   
    54   27   33 ar   
    55   28   30 ar   
    56   29   54 1    
    57   30   31 ar   
    58   30   55 1    
    59   31   32 ar   
    60   31   56 1    
    61   32   33 ar   
    62   32   57 1    
    63   33   58 1    
@<TRIPOS>SUBSTRUCTURE
     1 FD3         1 GROUP             0 A     ****    0 ROOT    
